geometry optimzed in LAMMPS
_audit_creation_date              2020-11-30 
_audit_creation_method            'lammps2cif' 
_symmetry_space_group_name_H-M    'P1' 
_symmetry_Int_Tables_number       1 
_symmetry_cell_setting            triclinic 
loop_ 
_symmetry_equiv_pos_as_xyz 
  x,y,z 
_cell_length_a                    28.56047118 
_cell_length_b                    28.543480609667238 
_cell_length_c                    20.83575423528462 
_cell_angle_alpha                 89.99793543237327 
_cell_angle_beta                  90.00167830546293 
_cell_angle_gamma                 120.05925292941356 
loop_ 
_atom_site_label 
_atom_site_type_symbol 
_atom_site_fract_x 
_atom_site_fract_y 
_atom_site_fract_z 
_atom_site_charge 
C1          C  0.33094934  0.66235333  0.18733780     0.49400
H2          H  0.32854247  0.66014422  0.13410361     0.00400
C3          C  0.33645346  0.66785211  0.31198352     0.49400
H4          H  0.33870538  0.67031278  0.36521368     0.00400
C5          C  0.36103913  0.72169369  0.21276148    -0.13300
C6          C  0.27398867  0.63496467  0.22029141    -0.13100
C7          C  0.36185835  0.63483899  0.21631789    -0.13500
C8          C  0.36346620  0.72478349  0.27904277    -0.13400
C9          C  0.27712573  0.63751521  0.28661746    -0.13000
C10         C  0.36438835  0.63734404  0.28295215    -0.13300
C11         C  0.17698112  0.34734795  0.82049115     0.06200
C12         C  0.13671713  0.31096426  0.77784446     0.06200
C13         C  0.14724542  0.27745092  0.73879723    -0.14300
C14         C  0.20065091  0.28909234  0.73128171     0.06200
C15         C  0.24152487  0.32896759  0.77046628     0.06200
C16         C  0.22724121  0.35088181  0.82147255    -0.14300
H17         H  0.25905794  0.38222973  0.85071330     0.08200
H18         H  0.11706678  0.25144032  0.70393259     0.08200
C19         C  0.06787020  0.85114594  0.79651388     0.06200
C20         C  0.06312284  0.84237364  0.72964261     0.06200
C21         C  0.09738225  0.88445579  0.68883863    -0.14300
C22         C  0.14592873  0.92641389  0.71313774     0.06200
C23         C  0.15561312  0.92960215  0.77977668     0.06200
C24         C  0.11313737  0.89705411  0.82104505    -0.14300
H25         H  0.12081637  0.89956224  0.87239290     0.08200
H26         H  0.09357862  0.87752526  0.63729294     0.08200
C27         C  0.79586013  0.71885956  0.23947502     0.06200
C28         C  0.82504827  0.75731542  0.28785591     0.06200
C29         C  0.87947045  0.77337268  0.29858390    -0.14300
C30         C  0.90215595  0.74613997  0.26716861     0.06200
C31         C  0.87323465  0.70950063  0.21729969     0.06200
C32         C  0.82270122  0.70099981  0.19930818    -0.14300
H33         H  0.79948898  0.66980647  0.16401460     0.08200
H34         H  0.90006666  0.79834354  0.34000569     0.08200
O35         O  0.10576254  0.54773044  0.91676747    -0.74600
C36         C  0.01718980  0.63421878  0.94863376     0.86500
O37         O  0.08696157  0.52938763  0.13339632    -0.75700
O38         O  0.90853869  0.52146552  0.07813311    -0.77200
O39         O  0.90647213  0.41982757  0.88481412    -0.77000
O40         O  0.04324702  0.46395963  0.88608014    -0.75600
Zn41       Zn  0.07150762  0.56935791  0.98612866     1.55700
O42         O  0.87384305  0.46781404  0.92968600    -0.77000
Cd43       Cd  0.97726188  0.44431079  0.94200644     1.59700
Cd44       Cd  0.00698083  0.48864435  0.09518932     1.59600
O45         O  0.96654023  0.37923090  0.99571023    -0.77000
O46         O  0.00007980  0.50596456  0.00335137    -1.87500
Cd47       Cd  0.93805314  0.51860455  0.99107692     1.59900
O48         O  0.98126323  0.40700497  0.09848660    -0.76900
O49         O  0.96941808  0.59515024  0.95700999    -0.75600
C50         C  0.12962256  0.57154645  0.11371787     0.87000
C51         C  0.09096968  0.50458978  0.88468641     0.86600
O52         O  0.05950016  0.63066874  0.95817556    -0.74500
C53         C  0.86946023  0.43242346  0.88917866     0.87400
O54         O  0.12878817  0.59370939  0.06065824    -0.74600
C55         C  0.96978587  0.37116212  0.05526088     0.87500
C56         C  0.92499272  0.52351784  0.13516890     0.87900
O57         O  0.96131405  0.51198115  0.15060537    -0.77100
O58         O  0.08105465  0.61246318  0.58652335    -0.74600
C59         C  0.05496376  0.44748299  0.61369714     0.86500
O60         O  0.09484099  0.54958015  0.37430655    -0.75700
O61         O  0.95185852  0.38067126  0.44981377    -0.77200
O62         O  0.88045563  0.47736956  0.57629419    -0.77000
O63         O  0.99452375  0.59191302  0.59273788    -0.75600
Zn64       Zn  0.07733869  0.54816230  0.53613566     1.55700
O65         O  0.88622211  0.40282837  0.57765752    -0.77000
Cd66       Cd  0.95346629  0.53181939  0.52903899     1.59700
Cd67       Cd  0.01409175  0.51238367  0.40475143     1.59600
O68         O  0.94407722  0.57359543  0.45501810    -0.77000
O69         O  0.00328449  0.50583046  0.50017920    -1.87500
Cd70       Cd  0.96026380  0.42860773  0.52761424     1.59900
O71         O  0.98779888  0.56343408  0.37149103    -0.76900
O72         O  0.00801517  0.41803456  0.59050370    -0.75600
C73         C  0.13958878  0.57359030  0.40439927     0.87000
C74         C  0.04413396  0.62202556  0.60611924     0.86600
O75         O  0.08588947  0.49713819  0.59822936    -0.74500
C76         C  0.86172118  0.42824746  0.59343492     0.87400
O77         O  0.14013542  0.57705999  0.46589858    -0.74600
C78         C  0.96339253  0.58525282  0.39846657     0.87500
C79         C  0.96181086  0.38959329  0.39005883     0.87900
O80         O  0.97972958  0.43605166  0.36440456    -0.77100
C81         C  0.93286039  0.16650040  0.26849252     0.06200
C82         C  0.92361540  0.15293548  0.20283392     0.06200
C83         C  0.87872060  0.10392651  0.18444112    -0.14300
C84         C  0.83920290  0.07314860  0.22994301     0.06200
C85         C  0.85072787  0.08443686  0.29577361     0.06200
C86         C  0.89986275  0.12883341  0.31455882    -0.14300
H87         H  0.90590655  0.14047125  0.36487108     0.08200
H88         H  0.86866489  0.09642211  0.13379814     0.08200
C89         C  0.24674793  0.09337899  0.22088973     0.06200
C90         C  0.27659201  0.11948768  0.27651930     0.06200
C91         C  0.28206691  0.16872293  0.29543426    -0.14300
C92         C  0.26834667  0.19736194  0.25250289     0.06200
C93         C  0.23587363  0.17050326  0.19857344     0.06200
C94         C  0.22244028  0.11706859  0.18542055    -0.14300
H95         H  0.20266921  0.09864910  0.14034377     0.08200
H96         H  0.30878080  0.19020461  0.33535708     0.08200
C97         C  0.67476583  0.83435627  0.68540359     0.06200
C98         C  0.70648326  0.87202931  0.73320510     0.06200
C99         C  0.73676451  0.85964423  0.77549682    -0.14300
C100        C  0.72535415  0.80608565  0.78030106     0.06200
C101        C  0.68912463  0.76727560  0.73621463     0.06200
C102        C  0.67158739  0.78421141  0.68326659    -0.14300
H103        H  0.64313663  0.75396941  0.65001957     0.08200
H104        H  0.75934804  0.88787833  0.81379467     0.08200
O105        O  0.46250175  0.89219053  0.58000994    -0.74600
C106        C  0.36371493  0.97145439  0.56335976     0.86500
O107        O  0.46612262  0.91256749  0.36466711    -0.75700
O108        O  0.46603846  0.08496564  0.42890518    -0.77200
O109        O  0.58009675  0.09386740  0.61203200    -0.77000
O110        O  0.54509443  0.95944436  0.60714477    -0.75600
Zn111      Zn  0.43274731  0.92414447  0.51695335     1.55700
O112        O  0.52588518  0.12175022  0.57394590    -0.77000
Cd113      Cd  0.55664316  0.02409335  0.55370299     1.59700
Cd114      Cd  0.50601282  0.99245653  0.40340140     1.59600
O115        O  0.62035005  0.03948620  0.49521746    -0.77000
O116        O  0.49176352  0.99760133  0.49696986    -1.87500
Cd117      Cd  0.47498452  0.05633293  0.51388270     1.59900
O118        O  0.58824104  0.02181289  0.39432233    -0.76900
O119        O  0.39985211  0.02017950  0.55269394    -0.75600
C120        C  0.42631048  0.86871869  0.38609295     0.87000
C121        C  0.50768673  0.91013029  0.60867480     0.86600
O122        O  0.37025900  0.93100315  0.55273704    -0.74500
C123        C  0.56439391  0.12864635  0.61084457     0.87400
O124        O  0.40654617  0.86799794  0.44141720    -0.74600
C125        C  0.62632994  0.03614440  0.43519657     0.87500
C126        C  0.46384165  0.07026554  0.37101480     0.87900
O127        O  0.47792506  0.03644079  0.35257588    -0.77100
O128        O  0.38025573  0.43429873  0.53604316    -0.74600
C129        C  0.51436023  0.56532268  0.63990702     0.86500
O130        O  0.47327263  0.56245010  0.37026683    -0.75700
O131        O  0.62977241  0.59143404  0.49818970    -0.77200
O132        O  0.53141434  0.39498248  0.55380241    -0.77000
O133        O  0.40756607  0.37372433  0.52182836    -0.75600
Zn134      Zn  0.44528028  0.50889027  0.52092775     1.55700
O135        O  0.59388404  0.47562713  0.58878724    -0.77000
Cd136      Cd  0.48540825  0.41708373  0.49085354     1.59700
Cd137      Cd  0.51824436  0.52619053  0.40088185     1.59600
O138        O  0.47612541  0.39053962  0.39697129    -0.77000
O139        O  0.50283537  0.49476960  0.48987767    -1.87500
Cd140      Cd  0.56898668  0.52630349  0.54465392     1.59900
O141        O  0.49224109  0.46251987  0.33686509    -0.76900
O142        O  0.55222715  0.55799915  0.62073788    -0.75600
C143        C  0.43592130  0.56757119  0.39683616     0.87000
C144        C  0.37148472  0.38579234  0.53501458     0.86600
O145        O  0.47073973  0.55002500  0.60788194    -0.74500
C146        C  0.57233858  0.42426135  0.58969621     0.87400
O147        O  0.42102286  0.55019000  0.45437715    -0.74600
C148        C  0.47382909  0.41189375  0.34409196     0.87500
C149        C  0.63408540  0.61073262  0.44208246     0.90500
O150        O  0.59795630  0.58826575  0.39865750    -0.77100
O151        O  0.39167558  0.91553510  0.91138371    -0.74600
C152        C  0.55791037  0.94470043  0.88836737     0.86500
O153        O  0.45032961  0.90446938  0.12552818    -0.75700
O154        O  0.62173662  0.04941155  0.04973040    -0.77200
O155        O  0.52282545  0.11690078  0.92090795    -0.77000
O156        O  0.40957079  0.00124811  0.90452682    -0.75600
Zn157      Zn  0.45584248  0.92108246  0.96330789     1.55700
O158        O  0.59840554  0.11314057  0.92107586    -0.77000
Cd159      Cd  0.46920724  0.04378379  0.96828081     1.59700
Cd160      Cd  0.48950281  0.98537352  0.09471308     1.59600
O161        O  0.42728453  0.05354952  0.04161530    -0.77000
O162        O  0.49636452  0.99543108  0.99901728    -1.87500
Cd163      Cd  0.57357160  0.03962810  0.97192857     1.59900
O164        O  0.43990346  0.01383540  0.12763384    -0.76900
O165        O  0.58596775  0.99221693  0.91060203    -0.75600
C166        C  0.42749078  0.85960339  0.09548815     0.87000
C167        C  0.38072251  0.95138670  0.89140249     0.86600
O168        O  0.50835263  0.91286747  0.90339033    -0.74500
C169        C  0.57219970  0.13664671  0.90452432     0.87400
O170        O  0.42609334  0.85885519  0.03389161    -0.74600
C171        C  0.41712580  0.03676904  0.09928502     0.87500
C172        C  0.61279696  0.03804192  0.10917195     0.87900
O173        O  0.56608753  0.01838143  0.13473459    -0.77100
O174        O  0.57191074  0.62321993  0.96905425    -0.74600
C175        C  0.44260381  0.49745072  0.85565154     0.86500
O176        O  0.43400283  0.52460423  0.12564945    -0.75700
O177        O  0.40655434  0.37292462  0.98978911    -0.77200
O178        O  0.60460858  0.46749995  0.94667164    -0.77000
O179        O  0.62949495  0.59230588  0.98410612    -0.75600
Zn180      Zn  0.49580159  0.55959710  0.97955562     1.55700
O181        O  0.52477553  0.40939161  0.90547682    -0.77000
Cd182      Cd  0.58234490  0.51319659  0.01018715     1.59700
Cd183      Cd  0.46995066  0.47952290  0.09438622     1.59600
O184        O  0.60383563  0.51658357  0.10541393    -0.77000
O185        O  0.50560093  0.49854175  0.00768113    -1.87500
Cd186      Cd  0.47438814  0.43507689  0.94852815     1.59900
O187        O  0.53023253  0.50066495  0.16194947    -0.76900
O188        O  0.44771406  0.45767626  0.87258039    -0.75600
C189        C  0.43277681  0.56499861  0.10159791     0.87000
C190        C  0.61964933  0.63011242  0.97175640     0.86600
O191        O  0.45774057  0.53953741  0.89065506    -0.74500
C192        C  0.57576435  0.42859975  0.90793840     0.87400
O193        O  0.45402616  0.58311594  0.04621749    -0.74600
C194        C  0.58069047  0.51733278  0.15750481     0.87500
C195        C  0.38587261  0.36609192  0.04548757     0.87900
O196        O  0.40736009  0.40020291  0.09112101    -0.77100
C197        C  0.66608200  0.32710655  0.68707813     0.49400
H198        H  0.66369748  0.32455942  0.63384566     0.00400
C199        C  0.67184926  0.33271356  0.81167741     0.49400
H200        H  0.67445598  0.33500714  0.86490934     0.00400
C201        C  0.63843759  0.27048829  0.72013318    -0.13300
C202        C  0.72533450  0.35733247  0.71243652    -0.13100
C203        C  0.63854115  0.35771814  0.71606933    -0.13500
C204        C  0.64136857  0.27347494  0.78621254    -0.13400
C205        C  0.72839184  0.36001298  0.77855993    -0.13000
C206        C  0.64160655  0.36074473  0.78281297    -0.13300
C207        C  0.61904533  0.38677304  0.82519997    -0.09300
C208        C  0.60076311  0.40639336  0.86384688    -0.10900
C209        C  0.59830372  0.18587538  0.86458133    -0.09300
C210        C  0.61823363  0.22569197  0.82923115    -0.10900
C211        C  0.59408416  0.39935156  0.63453939    -0.09300
C212        C  0.61314288  0.38084162  0.67361574    -0.10900
C213        C  0.59089086  0.17738154  0.65148200    -0.09300
C214        C  0.61237925  0.21914327  0.68344471    -0.10900
C215        C  0.65279186  0.71174406  0.75436600    -0.14600
C216        C  0.61028017  0.66974544  0.75547530     0.09500
C217        C  0.55936958  0.62751870  0.73504268     0.11300
C218        C  0.52623326  0.59554848  0.69821988    -0.15400
C219        C  0.63057275  0.83729968  0.65658584    -0.14600
C220        C  0.59094221  0.84066365  0.64697549     0.09500
C221        C  0.54869316  0.85214230  0.64346956     0.11300
C222        C  0.52164863  0.87290255  0.63514488    -0.15400
C223        C  0.66442531  0.68202458  0.95725215    -0.14600
C224        C  0.69930195  0.72291518  0.93356666     0.09500
C225        C  0.72842665  0.76382255  0.88887357     0.11300
C226        C  0.73634686  0.78870712  0.84000926    -0.15400
C227        C  0.68992316  0.90887260  0.75628142    -0.14600
C228        C  0.66040262  0.92210466  0.78106378     0.09500
C229        C  0.61866736  0.92476122  0.81333166     0.11300
C230        C  0.58545064  0.92814080  0.84514921    -0.15400
C231        C  0.23355018  0.20197936  0.14648293    -0.14600
C232        C  0.25206989  0.23632794  0.10604557     0.09500
C233        C  0.29287628  0.28055424  0.07298938     0.11300
C234        C  0.33490770  0.31887860  0.05683643    -0.15400
C235        C  0.43947487  0.37593726  0.29502633    -0.14600
C236        C  0.39825318  0.34210642  0.26984569     0.09500
C237        C  0.34605065  0.29838637  0.25619636     0.11300
C238        C  0.30484011  0.25523905  0.25273105    -0.15400
C239        C  0.43662282  0.08743491  0.32832390    -0.14600
C240        C  0.40156207  0.09631878  0.31193450     0.09500
C241        C  0.35590094  0.10236169  0.30639093     0.11300
C242        C  0.31719014  0.10785399  0.29947469    -0.15400
C243        C  0.37382321  0.03891365  0.13062829    -0.14600
C244        C  0.33299332  0.03718508  0.14859049     0.09500
C245        C  0.28732458  0.04019879  0.16745854     0.11300
C246        C  0.25846632  0.05576853  0.18887864    -0.15400
C247        C  0.80722615  0.06428408  0.34136399    -0.14600
C248        C  0.76760068  0.05541239  0.37094460     0.09500
C249        C  0.71976717  0.05044297  0.39593636     0.11300
C250        C  0.67776724  0.04607511  0.41347002    -0.15400
C251        C  0.78395828  0.04721080  0.20819258    -0.14600
C252        C  0.74047237  0.03970455  0.19130798     0.09500
C253        C  0.69422371  0.04082924  0.17030083     0.11300
C254        C  0.65662347  0.04259691  0.14696620    -0.15400
C255        C  0.95849618  0.22232613  0.28791165    -0.14600
C256        C  0.96467024  0.26535532  0.30467990     0.09500
C257        C  0.96136086  0.31010750  0.32700533     0.11300
C258        C  0.95801733  0.34639494  0.35167221    -0.15400
C259        C  0.81260559  0.40154130  0.63355099    -0.09300
C260        C  0.77298747  0.38101792  0.66920271    -0.10900
C261        C  0.94649840  0.19480464  0.15512604    -0.14600
C262        C  0.95632009  0.23303198  0.12203721     0.09500
C263        C  0.96048062  0.27927108  0.09303882     0.11300
C264        C  0.96290024  0.32014830  0.07424357    -0.15400
C265        C  0.82115649  0.40621587  0.84780628    -0.09300
C266        C  0.77966062  0.38537068  0.81536611    -0.10900
C267        C  0.94289001  0.73986790  0.30012039    -0.14600
C268        C  0.96063506  0.71392633  0.32458842     0.09500
C269        C  0.96444440  0.66956771  0.34705913     0.11300
C270        C  0.96229836  0.62899404  0.36682200    -0.15400
C271        C  0.90695915  0.54839873  0.18022173    -0.14600
C272        C  0.89700198  0.58276213  0.19656588     0.09500
C273        C  0.89008943  0.62808334  0.19909951     0.11300
C274        C  0.88444423  0.66701942  0.20136265    -0.15400
C275        C  0.68039975  0.66179234  0.42838224    -0.14600
C276        C  0.71786616  0.70454543  0.41252034     0.09500
C277        C  0.76172095  0.74637233  0.38016331     0.11300
C278        C  0.79571957  0.76393348  0.33934936    -0.15400
C279        C  0.61517378  0.54868925  0.20914993    -0.14600
C280        C  0.64975849  0.58932525  0.23447358     0.09500
C281        C  0.69467433  0.64140618  0.24496663     0.11300
C282        C  0.73815688  0.68234339  0.24412454    -0.15400
C283        C  0.19049156  0.95089359  0.66941005    -0.14600
C284        C  0.22919261  0.96018543  0.63785718     0.09500
C285        C  0.27413962  0.96202758  0.60870299     0.11300
C286        C  0.31364705  0.96305847  0.58767020    -0.15400
C287        C  0.05675675  0.66987915  0.64145547    -0.14600
C288        C  0.05382075  0.70705155  0.66445505     0.09500
C289        C  0.04544779  0.74905007  0.68645339     0.11300
C290        C  0.04494283  0.78872397  0.70517912    -0.15400
C291        C  0.20915396  0.94542868  0.80275897    -0.14600
C292        C  0.24951516  0.94489221  0.81822388     0.09500
C293        C  0.29333615  0.93804604  0.83615240     0.11300
C294        C  0.33214501  0.93693867  0.85681133    -0.15400
C295        C  0.02250285  0.68383004  0.92689607    -0.14600
C296        C  0.02341318  0.72309595  0.90512074     0.09500
C297        C  0.02755375  0.76806027  0.87314663     0.11300
C298        C  0.03987707  0.80667780  0.83984834    -0.15400
C299        C  0.21513663  0.27425312  0.67211238    -0.14600
C300        C  0.23855462  0.28028489  0.62250811     0.09500
C301        C  0.27870222  0.30847994  0.57675021     0.11300
C302        C  0.31937571  0.34259889  0.55192025    -0.15400
C303        C  0.41420825  0.48915439  0.79654856    -0.14600
C304        C  0.38158117  0.45669398  0.75976814     0.09500
C305        C  0.33817428  0.40552263  0.74233008     0.11300
C306        C  0.29602241  0.36354363  0.74766000    -0.15400
C307        C  0.07200750  0.42162861  0.65884492    -0.14600
C308        C  0.07679674  0.39034099  0.69284482     0.09500
C309        C  0.08189742  0.35118006  0.72794728     0.11300
C310        C  0.09752841  0.32429409  0.75456522    -0.15400
C311        C  0.13112963  0.49654808  0.85504195    -0.14600
C312        C  0.15590526  0.47337478  0.84709791     0.09500
C313        C  0.17096929  0.43360853  0.84763647     0.11300
C314        C  0.17535055  0.39407784  0.84315190    -0.15400
C315        C  0.18019646  0.59402265  0.15194034    -0.09300
C316        C  0.22241979  0.61206326  0.18331943    -0.10900
C317        C  0.19015705  0.59719142  0.36646473    -0.09300
C318        C  0.22962710  0.61551359  0.33039099    -0.10900
C319        C  0.40748574  0.59069492  0.13966098    -0.09300
C320        C  0.38682668  0.61035565  0.17488254    -0.10900
C321        C  0.38964976  0.61305443  0.32426584    -0.09300
C322        C  0.40989955  0.59280760  0.35923789    -0.10900
C323        C  0.40286582  0.80903282  0.13344907    -0.09300
C324        C  0.38365193  0.76932782  0.16918931    -0.10900
C325        C  0.40394165  0.81845885  0.34739643    -0.09300
C326        C  0.38607906  0.77630684  0.31596076    -0.10900
loop_ 
_geom_bond_atom_site_label_1 
_geom_bond_atom_site_label_2 
_geom_bond_distance 
_geom_bond_site_symmetry_2 
_ccdc_geom_bond_type 
C1            H2   1.111       .  S
C1            C7   1.567       .  S
C1            C6   1.567       .  S
C1            C5   1.559       .  S
C3            H4   1.111       .  S
C3            C9   1.559       .  S
C3            C8   1.566       .  S
C3           C10   1.567       .  S
C5            C8   1.383       .  D
C5          C324   1.487       .  S
C6            C9   1.384       .  D
C6          C316   1.492       .  S
C7           C10   1.390       .  D
C7          C320   1.497       .  S
C8          C326   1.490       .  S
C9          C318   1.488       .  S
C10         C321   1.498       .  S
C11          C12   1.412       .  A
C11          C16   1.388       .  A
C11         C314   1.438       .  S
C12          C13   1.398       .  A
C12         C310   1.435       .  S
C13          C14   1.398       .  A
C13          H18   1.087       .  S
C14          C15   1.412       .  A
C14         C299   1.430       .  S
C15          C16   1.394       .  A
C15         C306   1.443       .  S
C16          H17   1.088       .  S
C19          C20   1.410       .  A
C19          C24   1.397       .  A
C19         C298   1.431       .  S
C20          C21   1.395       .  A
C20         C290   1.442       .  S
C21          C22   1.396       .  A
C21          H26   1.088       .  S
C22          C23   1.410       .  A
C22         C283   1.431       .  S
C23          C24   1.395       .  A
C23         C291   1.442       .  S
C24          H25   1.087       .  S
C27          C28   1.414       .  A
C27          C32   1.393       .  A
C27         C282   1.446       .  S
C28          C29   1.401       .  A
C28         C278   1.431       .  S
C29          C30   1.399       .  A
C29          H34   1.086       .  S
C30          C31   1.411       .  A
C30         C267   1.437       .  S
C31          C32   1.390       .  A
C31         C274   1.439       .  S
C32          H33   1.087       .  S
O35          C51   1.273       .  A
O35         Zn41   2.008       .  S
C36         C295   1.421       .  S
C36          O52   1.278       .  A
C36          O49   1.269   1_455  A
O37          C50   1.277       .  A
O37         Cd44   2.131       .  S
O38          C56   1.268       .  A
O38         Cd47   2.019   1_554  S
O39          C53   1.279       .  A
O39         Cd43   2.140       .  S
O40          C51   1.273       .  A
O40         Cd43   2.041   1_455  S
Zn41         O52   2.030       .  S
Zn41         O54   2.105   1_556  S
Zn41         O46   1.966   1_556  S
O42          C53   1.274       .  A
O42         Cd47   2.107       .  S
Cd43         O45   2.056       .  S
Cd43         O46   2.002   1_656  S
Cd44         O48   2.064   1_455  S
Cd44         O57   2.085   1_455  S
Cd44         O46   2.011       .  S
O45          C55   1.274   1_556  A
O46         Cd47   1.994   1_454  S
Cd47         O49   2.030       .  S
O48          C55   1.276       .  A
C50         C315   1.485       .  S
C50          O54   1.280       .  A
C51         C311   1.419       .  S
C53         C265   1.474       .  S
C55         C264   1.424       .  S
C56         C271   1.420       .  S
C56          O57   1.277       .  A
O58          C74   1.281       .  A
O58         Zn64   2.071       .  S
C59         C307   1.423       .  S
C59          O75   1.280       .  A
C59          O72   1.268       .  A
O60          C73   1.272       .  A
O60         Cd67   2.097       .  S
O61          C79   1.274       .  A
O61         Cd70   2.056       .  S
O62          C76   1.276       .  A
O62         Cd66   2.118       .  S
O63          C74   1.267   1_655  A
O63         Cd66   2.016       .  S
Zn64         O75   2.052       .  S
Zn64         O77   2.135       .  S
Zn64         O69   1.984       .  S
O65          C76   1.278       .  A
O65         Cd70   2.131       .  S
Cd66         O68   2.048       .  S
Cd66         O69   1.998   1_655  S
Cd67         O71   2.065   1_455  S
Cd67         O80   2.068   1_455  S
Cd67         O69   2.006       .  S
O68          C78   1.273       .  A
O69         Cd70   1.995   1_455  S
Cd70         O72   2.020   1_655  S
O71          C78   1.275       .  A
C73         C317   1.480       .  S
C73          O77   1.285       .  A
C74         C287   1.430       .  S
C76         C259   1.475       .  S
C78         C270   1.426       .  S
C79         C258   1.428       .  S
C79          O80   1.275       .  A
C81          C82   1.410       .  A
C81          C86   1.397       .  A
C81         C255   1.439       .  S
C82          C83   1.397       .  A
C82         C261   1.436       .  S
C83          C84   1.397       .  A
C83          H88   1.086       .  S
C84          C85   1.410       .  A
C84         C251   1.440       .  S
C85          C86   1.395       .  A
C85         C247   1.436       .  S
C86          H87   1.087       .  S
C89          C90   1.410       .  A
C89          C94   1.398       .  A
C89         C246   1.439       .  S
C90          C91   1.391       .  A
C90         C242   1.438       .  S
C91          C92   1.394       .  A
C91          H96   1.087       .  S
C92          C93   1.414       .  A
C92         C238   1.446       .  S
C93          C94   1.401       .  A
C93         C231   1.432       .  S
C94          H95   1.086       .  S
C97          C98   1.412       .  A
C97         C102   1.389       .  A
C97         C219   1.438       .  S
C98          C99   1.398       .  A
C98         C227   1.435       .  S
C99         C100   1.398       .  A
C99         H104   1.087       .  S
C100        C101   1.412       .  A
C100        C226   1.431       .  S
C101        C102   1.394       .  A
C101        C215   1.444       .  S
C102        H103   1.087       .  S
O105        C121   1.274       .  A
O105       Zn111   2.014       .  S
C106        C286   1.420       .  S
C106        O122   1.278       .  A
C106        O119   1.269   1_565  A
O107        C120   1.278       .  A
O107       Cd114   2.132       .  S
O108        C126   1.268       .  A
O108       Cd117   2.019       .  S
O109        C123   1.278       .  A
O109       Cd113   2.134       .  S
O110        C121   1.272       .  A
O110       Cd113   2.036   1_565  S
Zn111       O122   2.032       .  S
Zn111       O124   2.099       .  S
Zn111       O116   1.967       .  S
O112        C123   1.274       .  A
O112       Cd117   2.109       .  S
Cd113       O115   2.046       .  S
Cd113       O116   2.000   1_545  S
Cd114       O118   2.069   1_565  S
Cd114       O127   2.086   1_565  S
Cd114       O116   2.012       .  S
O115        C125   1.272       .  A
O116       Cd117   1.992   1_565  S
Cd117       O119   2.026       .  S
O118        C125   1.277       .  A
C120        C325   1.483       .  S
C120        O124   1.279       .  A
C121        C222   1.420       .  S
C123        C213   1.473       .  S
C125        C250   1.423       .  S
C126        C239   1.420       .  S
C126        O127   1.277       .  A
O128        C144   1.278       .  A
O128       Zn134   2.030       .  S
C129        C218   1.429       .  S
C129        O145   1.282       .  A
C129        O142   1.265       .  A
O130        C143   1.274       .  A
O130       Cd137   2.112       .  S
O131        C149   1.272       .  A
O131       Cd140   2.043       .  S
O132        C146   1.283       .  A
O132       Cd136   2.162       .  S
O133        C144   1.270       .  A
O133       Cd136   2.033       .  S
Zn134       O145   2.082       .  S
Zn134       O147   2.147       .  S
Zn134       O139   1.987       .  S
O135        C146   1.275       .  A
O135       Cd140   2.115       .  S
Cd136       O138   2.066       .  S
Cd136       O139   2.015       .  S
Cd137       O141   2.069       .  S
Cd137       O150   2.070       .  S
Cd137       O139   2.010       .  S
O138        C148   1.277       .  A
O139       Cd140   1.995       .  S
Cd140       O142   1.999       .  S
O141        C148   1.275       .  A
C143        C322   1.490       .  S
C143        O147   1.286       .  A
C144        C302   1.422       .  S
C146        C211   1.485       .  S
C148        C235   1.433       .  S
C149        C275   1.423       .  S
C149        O150   1.277       .  A
O151        C167   1.280       .  A
O151       Zn157   2.065       .  S
C152        C230   1.423       .  S
C152        O168   1.280       .  A
C152        O165   1.268       .  A
O153        C166   1.273       .  A
O153       Cd160   2.100       .  S
O154        C172   1.273       .  A
O154       Cd163   2.053   1_554  S
O155        C169   1.275       .  A
O155       Cd159   2.115       .  S
O156        C167   1.267   1_545  A
O156       Cd159   2.017       .  S
Zn157       O168   2.053       .  S
Zn157       O170   2.128   1_556  S
Zn157       O162   1.984       .  S
O158        C169   1.278       .  A
O158       Cd163   2.130       .  S
Cd159       O161   2.045   1_556  S
Cd159       O162   1.997   1_545  S
Cd160       O164   2.071   1_565  S
Cd160       O173   2.074   1_565  S
Cd160       O162   2.010   1_554  S
O161        C171   1.272       .  A
O162       Cd163   1.996   1_565  S
Cd163       O165   2.017   1_545  S
O164        C171   1.276       .  A
C166        C323   1.479       .  S
C166        O170   1.284       .  A
C167        C294   1.429       .  S
C169        C209   1.474       .  S
C171        C243   1.427       .  S
C172        C254   1.429       .  S
C172        O173   1.276       .  A
O174        C190   1.278       .  A
O174       Zn180   2.029       .  S
C175        C303   1.428       .  S
C175        O191   1.281       .  A
C175        O188   1.265       .  A
O176        C189   1.274       .  A
O176       Cd183   2.111       .  S
O177        C195   1.272   1_556  A
O177       Cd186   2.049       .  S
O178        C192   1.283       .  A
O178       Cd182   2.165   1_556  S
O179        C190   1.270       .  A
O179       Cd182   2.040   1_556  S
Zn180       O191   2.078       .  S
Zn180       O193   2.146   1_556  S
Zn180       O185   1.987   1_556  S
O181        C192   1.274       .  A
O181       Cd186   2.114       .  S
Cd182       O184   2.065       .  S
Cd182       O185   2.016       .  S
Cd183       O187   2.066       .  S
Cd183       O196   2.067       .  S
Cd183       O185   2.010       .  S
O184        C194   1.277       .  A
O185       Cd186   1.994   1_554  S
Cd186       O188   1.998       .  S
O187        C194   1.275       .  A
C189        C319   1.490       .  S
C189        O193   1.286       .  A
C190        C223   1.423       .  S
C192        C208   1.486       .  S
C194        C279   1.430       .  S
C195        C234   1.423       .  S
C195        O196   1.277       .  A
C197        H198   1.111       .  S
C197        C203   1.561       .  S
C197        C202   1.557       .  S
C197        C201   1.559       .  S
C199        H200   1.111       .  S
C199        C205   1.559       .  S
C199        C204   1.557       .  S
C199        C206   1.562       .  S
C201        C204   1.379       .  D
C201        C214   1.481       .  S
C202        C205   1.380       .  D
C202        C260   1.483       .  S
C203        C206   1.393       .  D
C203        C212   1.491       .  S
C204        C210   1.482       .  S
C205        C266   1.481       .  S
C206        C207   1.492       .  S
C207        C208   1.236       .  T
C209        C210   1.229       .  T
C211        C212   1.235       .  T
C213        C214   1.228       .  T
C215        C216   1.206       .  T
C216        C217   1.412       .  S
C217        C218   1.205       .  T
C219        C220   1.200       .  T
C220        C221   1.402       .  S
C221        C222   1.198       .  T
C223        C224   1.197       .  T
C224        C225   1.396       .  S
C225        C226   1.196       .  T
C227        C228   1.200       .  T
C228        C229   1.403       .  S
C229        C230   1.200       .  T
C231        C232   1.196       .  T
C232        C233   1.397       .  S
C233        C234   1.198       .  T
C235        C236   1.206       .  T
C236        C237   1.413       .  S
C237        C238   1.206       .  T
C239        C240   1.199       .  T
C240        C241   1.403       .  S
C241        C242   1.201       .  T
C243        C244   1.202       .  T
C244        C245   1.406       .  S
C245        C246   1.201       .  T
C247        C248   1.199       .  T
C248        C249   1.401       .  S
C249        C250   1.199       .  T
C251        C252   1.202       .  T
C252        C253   1.407       .  S
C253        C254   1.203       .  T
C255        C256   1.202       .  T
C256        C257   1.406       .  S
C257        C258   1.202       .  T
C259        C260   1.229       .  T
C261        C262   1.199       .  T
C262        C263   1.401       .  S
C263        C264   1.199       .  T
C265        C266   1.228       .  T
C267        C268   1.200       .  T
C268        C269   1.404       .  S
C269        C270   1.201       .  T
C271        C272   1.199       .  T
C272        C273   1.404       .  S
C273        C274   1.201       .  T
C275        C276   1.198       .  T
C276        C277   1.397       .  S
C277        C278   1.196       .  T
C279        C280   1.205       .  T
C280        C281   1.412       .  S
C281        C282   1.206       .  T
C283        C284   1.196       .  T
C284        C285   1.397       .  S
C285        C286   1.197       .  T
C287        C288   1.205       .  T
C288        C289   1.411       .  S
C289        C290   1.205       .  T
C291        C292   1.204       .  T
C292        C293   1.410       .  S
C293        C294   1.204       .  T
C295        C296   1.197       .  T
C296        C297   1.397       .  S
C297        C298   1.196       .  T
C299        C300   1.196       .  T
C300        C301   1.395       .  S
C301        C302   1.197       .  T
C303        C304   1.204       .  T
C304        C305   1.410       .  S
C305        C306   1.205       .  T
C307        C308   1.200       .  T
C308        C309   1.403       .  S
C309        C310   1.200       .  T
C311        C312   1.198       .  T
C312        C313   1.401       .  S
C313        C314   1.200       .  T
C315        C316   1.235       .  T
C317        C318   1.232       .  T
C319        C320   1.238       .  T
C321        C322   1.239       .  T
C323        C324   1.232       .  T
C325        C326   1.234       .  T
