geometry optimzed in LAMMPS
_audit_creation_date              2020-11-30 
_audit_creation_method            'lammps2cif' 
_symmetry_space_group_name_H-M    'P1' 
_symmetry_Int_Tables_number       1 
_symmetry_cell_setting            triclinic 
loop_ 
_symmetry_equiv_pos_as_xyz 
  x,y,z 
_cell_length_a                    24.9916731 
_cell_length_b                    26.164932894480717 
_cell_length_c                    25.299500391994826 
_cell_angle_alpha                 92.21854695127152 
_cell_angle_beta                  89.76687029681857 
_cell_angle_gamma                 90.08614625899484 
loop_ 
_atom_site_label 
_atom_site_type_symbol 
_atom_site_fract_x 
_atom_site_fract_y 
_atom_site_fract_z 
_atom_site_charge 
C1          C  0.55336712  0.02504329  0.96123283     0.04700
C2          C  0.55192102  0.97107017  0.46304649     0.04700
C3          C  0.50269805  0.94571257  0.46137816    -0.15800
C4          C  0.45465393  0.97261705  0.45885256     0.04700
C5          C  0.45522225  0.02649874  0.95873879     0.04700
C6          C  0.50476007  0.05227523  0.95949966    -0.15800
H7          H  0.50548942  0.09369810  0.95875601     0.06700
H8          H  0.50173483  0.90423325  0.46208552     0.06700
C9          C  0.76055742  0.81494137  0.46723925     0.88900
C10         C  0.78508876  0.83326754  0.41602664    -0.51300
C11         C  0.83676976  0.81937030  0.40869502     0.11800
C12         C  0.86020002  0.78870565  0.45379086     0.22800
C13         C  0.76920385  0.75623352  0.46531829    -0.52100
C14         C  0.82224925  0.74311319  0.45844308     0.11900
C15         C  0.79746616  0.83523270  0.01146134    -0.51600
C16         C  0.84935683  0.82071506  0.50479863     0.12500
H17         H  0.76333372  0.85552929  0.38773843     0.17000
H18         H  0.90292666  0.77794149  0.44811048     0.02800
H19         H  0.73748400  0.72847357  0.47052863     0.17300
H20         H  0.78348812  0.85758211  0.04589752     0.17100
O21         O  0.00533681  0.92775800  0.33109551    -0.77700
O22         O  0.03409091  0.03384740  0.10773237    -0.77700
O23         O  0.07083183  0.89162643  0.16345351    -0.77700
O24         O  0.07140143  0.02854690  0.25178350    -0.77700
O25         O  0.06711344  0.96067876  0.11759219    -0.77800
O26         O  0.01464297  0.02717614  0.31897970    -0.77700
O27         O  0.04717801  0.09374526  0.17130357    -0.77700
O28         O  0.06569554  0.90840151  0.27007327    -0.77800
C29         C  0.05203279  0.91292543  0.31795005     1.12000
C30         C  0.05402505  0.07693760  0.12383287     1.11900
C31         C  0.08968905  0.92020642  0.12901611     1.12000
C32         C  0.06087762  0.03666087  0.30060020     1.11900
O33         O  0.90950937  0.02919020  0.26761728    -0.77700
O34         O  0.97751404  0.91189350  0.09558002    -0.77800
O35         O  0.95998234  0.86425567  0.27046619    -0.77700
O36         O  0.94556950  0.06100194  0.15902359    -0.77700
O37         O  0.93097567  0.99783013  0.10349153    -0.77800
O38         O  0.90158342  0.92628024  0.27910842    -0.77700
O39         O  0.97262974  0.08489815  0.25722954    -0.77700
O40         O  0.95747670  0.86438891  0.16272072    -0.77800
Co41       Co  0.95771922  0.97724880  0.29392929     1.51500
Co42       Co  0.99382603  0.97330469  0.13849366     1.51700
Co43       Co  0.01168003  0.88967960  0.21647718     1.51600
Co44       Co  0.01042051  0.03795250  0.20303347     1.51500
O45         O  0.98529212  0.96604982  0.21802991    -1.39700
C46         C  0.92738420  0.07339525  0.27672011     1.11900
C47         C  0.95401714  0.87418825  0.11411967     1.12000
C48         C  0.91524030  0.88095585  0.28681474     1.11900
C49         C  0.92147190  0.04269678  0.11832735     1.11900
C50         C  0.85509694  0.22088222  0.46896058     0.88900
C51         C  0.79499325  0.20745541  0.46555453    -0.51300
C52         C  0.78574925  0.15589963  0.45832112     0.11800
C53         C  0.83693240  0.12333375  0.45479203     0.22800
C54         C  0.87667588  0.18880277  0.01362456    -0.52100
C55         C  0.86638647  0.13777069  0.00697462     0.11900
C56         C  0.87969187  0.19796399  0.41817649    -0.51600
C57         C  0.87001262  0.14735126  0.41007055     0.12500
H58         H  0.76317202  0.23557105  0.46950863     0.17000
H59         H  0.82927776  0.08168220  0.44863485     0.02800
H60         H  0.89643566  0.20527743  0.04848681     0.17300
H61         H  0.90182201  0.22033115  0.39003125     0.17100
C62         C  0.16652884  0.76336999  0.46539636     0.88900
C63         C  0.13448791  0.79104296  0.42375831    -0.51300
C64         C  0.14463335  0.84205883  0.42308608     0.11800
C65         C  0.18611354  0.86107248  0.46378867     0.22800
C66         C  0.22571878  0.77581580  0.45376571    -0.52100
C67         C  0.23540416  0.82747934  0.45320586     0.11900
C68         C  0.15416086  0.79229492  0.01779424    -0.51600
C69         C  0.16514732  0.84322286  0.01680872     0.12500
H70         H  0.10544303  0.77212010  0.39776554     0.17000
H71         H  0.19404299  0.90289380  0.46333349     0.02800
H72         H  0.25680368  0.74710833  0.44847804     0.17300
H73         H  0.13751263  0.77435918  0.05225494     0.17100
C74         C  0.15063414  0.21493352  0.44733130     0.88900
C75         C  0.12453900  0.19533730  0.99720769    -0.51300
C76         C  0.13216805  0.14481517  0.00404984     0.11800
C77         C  0.16547077  0.11756755  0.45967736     0.22800
C78         C  0.21007081  0.20010881  0.45124537    -0.52100
C79         C  0.21776627  0.14880422  0.45746884     0.11900
C80         C  0.12840409  0.18084570  0.40173944    -0.51600
C81         C  0.13660550  0.12980149  0.40784941     0.12500
H82         H  0.10152823  0.21947700  0.02488190     0.17000
H83         H  0.17151796  0.07602604  0.46509477     0.02800
H84         H  0.24276454  0.22728312  0.44855490     0.17300
H85         H  0.10816580  0.19573336  0.36766954     0.17100
C86         C  0.03659701  0.53946968  0.46691556     0.04700
C87         C  0.98000476  0.53862935  0.46863099     0.04700
C88         C  0.95321042  0.49162645  0.46960259    -0.15800
C89         C  0.98139396  0.44542680  0.46759815     0.04700
C90         C  0.03773417  0.44595622  0.46369698     0.04700
C91         C  0.06485043  0.49301095  0.46414612    -0.15800
H92         H  0.10819045  0.49347139  0.46182090     0.06700
H93         H  0.90983559  0.49096621  0.47159037     0.06700
C94         C  0.06840149  0.39908321  0.45775848    -0.16100
C95         C  0.09367781  0.35990720  0.45161284     0.08000
C96         C  0.12078944  0.31252753  0.44502983     0.09800
C97         C  0.13902635  0.26971919  0.44260517    -0.16900
C98         C  0.06709210  0.58664151  0.46752877    -0.16100
C99         C  0.09553460  0.62410265  0.46784080     0.08000
C100        C  0.12825048  0.66840871  0.46750863     0.09800
C101        C  0.15120727  0.70908235  0.46662850    -0.16900
C102        C  0.95095310  0.39850684  0.46993437    -0.16100
C103        C  0.92296936  0.36104528  0.47279234     0.08000
C104        C  0.89112774  0.31647246  0.47556519     0.09800
C105        C  0.86914192  0.27533552  0.47531206    -0.16900
C106        C  0.87783114  0.10242513  0.04856214    -0.10900
C107        C  0.89203694  0.07520430  0.08371033    -0.12400
C108        C  0.88694508  0.12170874  0.36112673    -0.10900
C109        C  0.90406847  0.10313501  0.31993104    -0.12400
C110        C  0.10878400  0.12101718  0.04913742    -0.10900
C111        C  0.08489664  0.10414844  0.08616703    -0.12400
C112        C  0.11884913  0.09157610  0.36857634    -0.10900
C113        C  0.09780831  0.06359713  0.33546928    -0.12400
C114        C  0.15340554  0.87736830  0.06077259    -0.10900
C115        C  0.13180299  0.90138930  0.09596421    -0.12400
C116        C  0.08802707  0.89566391  0.35736626    -0.10900
C117        C  0.11603527  0.87457343  0.38839285    -0.12400
C118        C  0.84449922  0.69228475  0.46059961    -0.16100
C119        C  0.87419646  0.65603021  0.46319426     0.08000
C120        C  0.91416401  0.61781778  0.46619802     0.09800
C121        C  0.94726408  0.58424616  0.46804613    -0.16900
C122        C  0.88890681  0.83117117  0.04499567    -0.10900
C123        C  0.91971271  0.84534816  0.07899449    -0.12400
C124        C  0.88615769  0.85217373  0.32433448    -0.10900
C125        C  0.86532857  0.83381566  0.36216136    -0.12400
C126        C  0.40569118  0.05558959  0.45837780    -0.16100
C127        C  0.36364206  0.07864910  0.45875853     0.08000
C128        C  0.31358506  0.10447779  0.45927504     0.09800
C129        C  0.27036618  0.12543127  0.45912942    -0.16900
C130        C  0.40596248  0.94296394  0.45591722    -0.16100
C131        C  0.36886613  0.91350626  0.45298611     0.08000
C132        C  0.32645126  0.87783797  0.45003581     0.09800
C133        C  0.28750762  0.85060758  0.44941617    -0.16900
C134        C  0.70608449  0.83543760  0.47343215    -0.16100
C135        C  0.66926371  0.86535661  0.47370424     0.08000
C136        C  0.63206152  0.90596263  0.47066874     0.09800
C137        C  0.59895786  0.93929024  0.46706837    -0.16900
C138        C  0.73298911  0.13266299  0.45747428    -0.16100
C139        C  0.69129283  0.10899156  0.45801735     0.08000
C140        C  0.64388663  0.07892097  0.45941749     0.09800
C141        C  0.60341151  0.05338743  0.46061568    -0.16900
C142        C  0.55336719  0.02504345  0.46123141     0.04700
C143        C  0.55192094  0.97107000  0.96304777     0.04700
C144        C  0.50269798  0.94571237  0.96137909    -0.15800
C145        C  0.45465387  0.97261685  0.95885324     0.04700
C146        C  0.45522231  0.02649893  0.45873794     0.04700
C147        C  0.50476013  0.05227540  0.45949841    -0.15800
H148        H  0.50548948  0.09369827  0.45875467     0.06700
H149        H  0.50173476  0.90423305  0.96208630     0.06700
C150        C  0.76055745  0.81494136  0.96723961     0.88900
C151        C  0.78508841  0.83326731  0.91602673    -0.51300
C152        C  0.83676940  0.81937010  0.90869484     0.11800
C153        C  0.86019999  0.78870569  0.95379070     0.22800
C154        C  0.76920395  0.75623353  0.96531892    -0.52100
C155        C  0.82224931  0.74311323  0.95844343     0.11900
C156        C  0.79746586  0.83523245  0.51146133    -0.51600
C157        C  0.84935711  0.82071536  0.00479836     0.12500
H158        H  0.76333317  0.85552897  0.88773858     0.17000
H159        H  0.90292661  0.77794155  0.94811011     0.02800
H160        H  0.73748418  0.72847358  0.97052966     0.17300
H161        H  0.78348762  0.85758170  0.54589753     0.17100
O162        O  0.00533613  0.92775838  0.83109585    -0.77700
O163        O  0.03409013  0.03384759  0.60773265    -0.77700
O164        O  0.07083199  0.89162746  0.66345422    -0.77700
O165        O  0.07140092  0.02854713  0.75178375    -0.77700
O166        O  0.06711113  0.96067790  0.61759002    -0.77800
O167        O  0.01464235  0.02717650  0.81897987    -0.77700
O168        O  0.04717774  0.09374548  0.67130373    -0.77700
O169        O  0.06569516  0.90840238  0.77007381    -0.77800
C170        C  0.05203220  0.91292599  0.81795055     1.12000
C171        C  0.05402460  0.07693769  0.62383304     1.11900
C172        C  0.08968793  0.92020658  0.62901538     1.12000
C173        C  0.06087705  0.03666116  0.80060042     1.11900
O174        O  0.90950884  0.02919049  0.76761721    -0.77700
O175        O  0.97751183  0.91189411  0.59558025    -0.77800
O176        O  0.95998206  0.86425602  0.77046636    -0.77700
O177        O  0.94556920  0.06100253  0.65902365    -0.77700
O178        O  0.93097406  0.99783057  0.60349215    -0.77800
O179        O  0.90158292  0.92628047  0.77910847    -0.77700
O180        O  0.97262925  0.08489845  0.75722963    -0.77700
O181        O  0.95747701  0.86438860  0.66272098    -0.77800
Co182      Co  0.95771862  0.97724912  0.79392941     1.51500
Co183      Co  0.99382464  0.97330506  0.63849371     1.51700
Co184      Co  0.01167997  0.88968006  0.71647754     1.51600
Co185      Co  0.01042011  0.03795282  0.70303363     1.51500
O186        O  0.98529167  0.96605013  0.71803006    -1.39700
C187        C  0.92738365  0.07339554  0.77672011     1.11900
C188        C  0.95401628  0.87418824  0.61412009     1.12000
C189        C  0.91523990  0.88095608  0.78681476     1.11900
C190        C  0.92147101  0.04269740  0.61832774     1.11900
C191        C  0.85509696  0.22088204  0.96896115     0.88900
C192        C  0.79499323  0.20745527  0.96555549    -0.51300
C193        C  0.78574916  0.15589952  0.95832192     0.11800
C194        C  0.83693228  0.12333362  0.95479231     0.22800
C195        C  0.87667554  0.18880317  0.51362430    -0.52100
C196        C  0.86638621  0.13777107  0.50697452     0.11900
C197        C  0.87969150  0.19796400  0.91817680    -0.51600
C198        C  0.87001218  0.14735129  0.91007071     0.12500
H199        H  0.76317204  0.23557092  0.96950997     0.17000
H200        H  0.82927758  0.08168209  0.94863500     0.02800
H201        H  0.89643507  0.20527799  0.54848662     0.17300
H202        H  0.90182149  0.22033125  0.89003152     0.17100
C203        C  0.16652865  0.76337004  0.96539615     0.88900
C204        C  0.13448746  0.79104314  0.92375838    -0.51300
C205        C  0.14463293  0.84205900  0.92308620     0.11800
C206        C  0.18611342  0.86107252  0.96378855     0.22800
C207        C  0.22571852  0.77581581  0.95376513    -0.52100
C208        C  0.23540396  0.82747935  0.95320533     0.11900
C209        C  0.15416066  0.79229497  0.51779431    -0.51600
C210        C  0.16514708  0.84322291  0.51680874     0.12500
H211        H  0.10544238  0.77212036  0.89776576     0.17000
H212        H  0.19404291  0.90289383  0.96333341     0.02800
H213        H  0.25680337  0.74710832  0.94847723     0.17300
H214        H  0.13751220  0.77435928  0.55225494     0.17100
C215        C  0.15063437  0.21493370  0.94733124     0.88900
C216        C  0.12453866  0.19533706  0.49720767    -0.51300
C217        C  0.13216778  0.14481494  0.50404985     0.11800
C218        C  0.16547088  0.11756771  0.95967727     0.22800
C219        C  0.21007103  0.20010890  0.95124516    -0.52100
C220        C  0.21776641  0.14880430  0.95746863     0.11900
C221        C  0.12840413  0.18084591  0.90173945    -0.51600
C222        C  0.13660547  0.12980169  0.90784942     0.12500
H223        H  0.10152779  0.21947673  0.52488183     0.17000
H224        H  0.17151800  0.07602619  0.96509469     0.02800
H225        H  0.24276480  0.22728317  0.94855466     0.17300
H226        H  0.10816574  0.19573359  0.86766963     0.17100
C227        C  0.03659692  0.53946964  0.96691601     0.04700
C228        C  0.98000466  0.53862926  0.96863164     0.04700
C229        C  0.95321028  0.49162635  0.96960331    -0.15800
C230        C  0.98139393  0.44542672  0.96759873     0.04700
C231        C  0.03773414  0.44595619  0.96369739     0.04700
C232        C  0.06485045  0.49301094  0.96414646    -0.15800
H233        H  0.10819037  0.49347141  0.96182109     0.06700
H234        H  0.90983555  0.49096609  0.97159122     0.06700
C235        C  0.06840150  0.39908323  0.95775875    -0.16100
C236        C  0.09367791  0.35990728  0.95161301     0.08000
C237        C  0.12078965  0.31252769  0.94502988     0.09800
C238        C  0.13902663  0.26971938  0.94260515    -0.16900
C239        C  0.06709196  0.58664150  0.96752906    -0.16100
C240        C  0.09553443  0.62410267  0.96784092     0.08000
C241        C  0.12825027  0.66840875  0.96750854     0.09800
C242        C  0.15120705  0.70908240  0.96662828    -0.16900
C243        C  0.95095312  0.39850672  0.96993499    -0.16100
C244        C  0.92296943  0.36104512  0.97279300     0.08000
C245        C  0.89112784  0.31647227  0.97556589     0.09800
C246        C  0.86914202  0.27533533  0.97531276    -0.16900
C247        C  0.87783063  0.10242572  0.54856229    -0.10900
C248        C  0.89203626  0.07520504  0.58371067    -0.12400
C249        C  0.88694451  0.12170890  0.86112678    -0.10900
C250        C  0.90406788  0.10313525  0.81993105    -0.12400
C251        C  0.10878370  0.12101695  0.54913742    -0.10900
C252        C  0.08489631  0.10414830  0.58616709    -0.12400
C253        C  0.11884880  0.09157631  0.86857647    -0.10900
C254        C  0.09780778  0.06359737  0.83546950    -0.12400
C255        C  0.15340497  0.87736842  0.56077245    -0.10900
C256        C  0.13180213  0.90138947  0.59596385    -0.12400
C257        C  0.08802638  0.89566433  0.85736678    -0.10900
C258        C  0.11603464  0.87457372  0.88839323    -0.12400
C259        C  0.84449932  0.69228482  0.96060021    -0.16100
C260        C  0.87419649  0.65603024  0.96319498     0.08000
C261        C  0.91416395  0.61781774  0.96619879     0.09800
C262        C  0.94726397  0.58424607  0.96804687    -0.16900
C263        C  0.88890628  0.83117060  0.54499625    -0.10900
C264        C  0.91971204  0.84534762  0.57899520    -0.12400
C265        C  0.88615718  0.85217379  0.82433430    -0.10900
C266        C  0.86532804  0.83381559  0.86216110    -0.12400
C267        C  0.40569114  0.05558940  0.95837839    -0.16100
C268        C  0.36364207  0.07864897  0.95875887     0.08000
C269        C  0.31358512  0.10447774  0.95927511     0.09800
C270        C  0.27036629  0.12543130  0.95912931    -0.16900
C271        C  0.40596243  0.94296373  0.95591741    -0.16100
C272        C  0.36886607  0.91350608  0.95298592     0.08000
C273        C  0.32645114  0.87783786  0.95003529     0.09800
C274        C  0.28750745  0.85060753  0.94941554    -0.16900
C275        C  0.70608453  0.83543753  0.97343283    -0.16100
C276        C  0.66926371  0.86535649  0.97370520     0.08000
C277        C  0.63206146  0.90596248  0.97066996     0.09800
C278        C  0.59895776  0.93929007  0.96706970    -0.16900
C279        C  0.73298901  0.13266289  0.95747546    -0.16100
C280        C  0.69129273  0.10899145  0.95801878     0.08000
C281        C  0.64388656  0.07892083  0.95941909     0.09800
C282        C  0.60341145  0.05338728  0.96061727    -0.16900
loop_ 
_geom_bond_atom_site_label_1 
_geom_bond_atom_site_label_2 
_geom_bond_distance 
_geom_bond_site_symmetry_2 
_ccdc_geom_bond_type 
C1            C6   1.411       .  A
C1          C143   1.415   1_545  A
C1          C282   1.453       .  S
C2            C3   1.397       .  A
C2          C142   1.415   1_565  A
C2          C137   1.447       .  S
C3            C4   1.396       .  A
C3            H8   1.086       .  S
C4          C146   1.410   1_565  A
C4          C130   1.443       .  S
C5            C6   1.409       .  A
C5          C145   1.410   1_545  A
C5          C267   1.454       .  S
C6            H7   1.085       .  S
C9           C10   1.525       .  S
C9           C13   1.550       .  S
C9          C156   1.531       .  S
C9          C134   1.469       .  S
C10          H17   1.088       .  S
C10          C11   1.352       .  D
C11          C12   1.538       .  S
C11         C125   1.437       .  S
C12          C16   1.534       .  S
C12          C14   1.531       .  S
C12          H18   1.112       .  S
C13          H19   1.085       .  S
C13          C14   1.379       .  D
C14         C118   1.445       .  S
C15         C150   1.531   1_554  S
C15          H20   1.087       .  S
C15         C157   1.360       .  D
C16         C156   1.360       .  D
C16         C263   1.439       .  S
O21          C29   1.269       .  A
O21         Co41   2.021   1_455  S
O22          C30   1.284       .  A
O22         Co42   2.052   1_445  S
O23          C31   1.260       .  A
O23         Co43   1.994       .  S
O24          C32   1.272       .  A
O24         Co44   1.986       .  S
O25          C31   1.245       .  A
O25         Co42   1.930   1_455  S
O26          C32   1.271       .  A
O26         Co41   2.017   1_445  S
O27          C30   1.274       .  A
O27         Co44   1.924       .  S
O28          C29   1.258       .  A
O28         Co43   1.965       .  S
C29         C116   1.432       .  S
C30         C111   1.434       .  S
C31         C115   1.418       .  S
C32         C113   1.443       .  S
O33          C46   1.253       .  A
O33         Co41   1.955   1_545  S
O34          C47   1.253       .  A
O34         Co42   1.948       .  S
O35          C48   1.263       .  A
O35         Co43   2.008   1_655  S
O36          C49   1.272       .  A
O36         Co44   2.074   1_655  S
O37          C49   1.242   1_565  A
O37         Co42   1.929       .  S
O38          C48   1.257       .  A
O38         Co41   1.961       .  S
O39          C46   1.272       .  A
O39         Co44   2.036   1_655  S
O40          C47   1.269       .  A
O40         Co43   2.016   1_655  S
Co41         O45   2.048       .  S
Co42         O45   2.039       .  S
Co43         O45   2.104   1_455  S
Co44         O45   2.032   1_445  S
C46         C109   1.439       .  S
C47         C123   1.431       .  S
C48         C124   1.430       .  S
C49         C107   1.448       .  S
C50          C51   1.544       .  S
C50          C56   1.524       .  S
C50         C195   1.534       .  S
C50         C105   1.470       .  S
C51          H58   1.086       .  S
C51          C52   1.374       .  D
C52          C53   1.538       .  S
C52         C138   1.451       .  S
C53          C57   1.551       .  S
C53         C196   1.548       .  S
C53          H59   1.111       .  S
C54         C191   1.534   1_554  S
C54          H60   1.087       .  S
C54          C55   1.364       .  D
C55         C194   1.548   1_554  S
C55         C106   1.457       .  S
C56          H61   1.088       .  S
C56          C57   1.354       .  D
C57         C108   1.447       .  S
C62          C63   1.531       .  S
C62          C66   1.544       .  S
C62         C209   1.531       .  S
C62         C101   1.472       .  S
C63          H70   1.087       .  S
C63          C64   1.359       .  D
C64          C65   1.533       .  S
C64         C117   1.439       .  S
C65          C67   1.531       .  S
C65         C210   1.528       .  S
C65          H71   1.112       .  S
C66          H72   1.086       .  S
C66          C67   1.374       .  D
C67         C133   1.439       .  S
C68         C203   1.531   1_554  S
C68          H73   1.087       .  S
C68          C69   1.361       .  D
C69         C206   1.528   1_554  S
C69         C114   1.429       .  S
C74          C80   1.536       .  S
C74          C78   1.540       .  S
C74         C216   1.524       .  S
C74          C97   1.472       .  S
C75         C215   1.524       .  S
C75          H82   1.088   1_556  S
C75          C76   1.354   1_556  D
C76         C218   1.547   1_554  S
C76         C110   1.442       .  S
C77          C81   1.544       .  S
C77          C79   1.542       .  S
C77         C217   1.547       .  S
C77          H83   1.111       .  S
C78          H84   1.086       .  S
C78          C79   1.372       .  D
C79         C129   1.452       .  S
C80          H85   1.087       .  S
C80          C81   1.366       .  D
C81         C112   1.453       .  S
C86          C87   1.415   1_455  A
C86          C91   1.406       .  A
C86          C98   1.449       .  S
C87          C88   1.400       .  A
C87         C121   1.449       .  S
C88          C89   1.399       .  A
C88          H93   1.085       .  S
C89          C90   1.411   1_655  A
C89         C102   1.446       .  S
C90          C91   1.404       .  A
C90          C94   1.450       .  S
C91          H92   1.085       .  S
C94          C95   1.209       .  T
C95          C96   1.417       .  S
C96          C97   1.209       .  T
C98          C99   1.210       .  T
C99         C100   1.418       .  S
C100        C101   1.209       .  T
C102        C103   1.208       .  T
C103        C104   1.415       .  S
C104        C105   1.208       .  T
C106        C107   1.215       .  T
C108        C109   1.210       .  T
C110        C111   1.206       .  T
C112        C113   1.212       .  T
C114        C115   1.197       .  T
C116        C117   1.204       .  T
C118        C119   1.209       .  T
C119        C120   1.419       .  S
C120        C121   1.210       .  T
C122        C157   1.439       .  S
C122        C123   1.204       .  T
C124        C125   1.203       .  T
C126        C146   1.454       .  S
C126        C127   1.212       .  T
C127        C128   1.423       .  S
C128        C129   1.212       .  T
C130        C131   1.205       .  T
C131        C132   1.412       .  S
C132        C133   1.205       .  T
C134        C135   1.209       .  T
C135        C136   1.417       .  S
C136        C137   1.209       .  T
C138        C139   1.212       .  T
C139        C140   1.422       .  S
C140        C141   1.212       .  T
C141        C142   1.453       .  S
C142        C147   1.411       .  A
C143        C144   1.397       .  A
C143        C278   1.447       .  S
C144        C145   1.396       .  A
C144        H149   1.086       .  S
C145        C271   1.443       .  S
C146        C147   1.409       .  A
C147        H148   1.085       .  S
C150        C151   1.525       .  S
C150        C154   1.550       .  S
C150        C275   1.469       .  S
C151        H158   1.088       .  S
C151        C152   1.352       .  D
C152        C153   1.538       .  S
C152        C266   1.437       .  S
C153        C157   1.534   1_556  S
C153        C155   1.531       .  S
C153        H159   1.112       .  S
C154        H160   1.085       .  S
C154        C155   1.379       .  D
C155        C259   1.445       .  S
C156        H161   1.087       .  S
O162        C170   1.269       .  A
O162       Co182   2.021   1_455  S
O163        C171   1.284       .  A
O163       Co183   2.052   1_445  S
O164        C172   1.260       .  A
O164       Co184   1.994       .  S
O165        C173   1.272       .  A
O165       Co185   1.986       .  S
O166        C172   1.245       .  A
O166       Co183   1.930   1_455  S
O167        C173   1.271       .  A
O167       Co182   2.017   1_445  S
O168        C171   1.274       .  A
O168       Co185   1.924       .  S
O169        C170   1.258       .  A
O169       Co184   1.965       .  S
C170        C257   1.432       .  S
C171        C252   1.434       .  S
C172        C256   1.418       .  S
C173        C254   1.443       .  S
O174        C187   1.253       .  A
O174       Co182   1.955   1_545  S
O175        C188   1.253       .  A
O175       Co183   1.948       .  S
O176        C189   1.263       .  A
O176       Co184   2.008   1_655  S
O177        C190   1.272       .  A
O177       Co185   2.074   1_655  S
O178        C190   1.242   1_565  A
O178       Co183   1.929       .  S
O179        C189   1.257       .  A
O179       Co182   1.961       .  S
O180        C187   1.272       .  A
O180       Co185   2.036   1_655  S
O181        C188   1.269       .  A
O181       Co184   2.016   1_655  S
Co182       O186   2.048       .  S
Co183       O186   2.039       .  S
Co184       O186   2.104   1_455  S
Co185       O186   2.032   1_445  S
C187        C250   1.439       .  S
C188        C264   1.431       .  S
C189        C265   1.430       .  S
C190        C248   1.448       .  S
C191        C192   1.544       .  S
C191        C197   1.524       .  S
C191        C246   1.470       .  S
C192        H199   1.086       .  S
C192        C193   1.374       .  D
C193        C194   1.538       .  S
C193        C279   1.451       .  S
C194        C198   1.551       .  S
C194        H200   1.111       .  S
C195        H201   1.087       .  S
C195        C196   1.364       .  D
C196        C247   1.457       .  S
C197        H202   1.088       .  S
C197        C198   1.354       .  D
C198        C249   1.447       .  S
C203        C204   1.531       .  S
C203        C207   1.544       .  S
C203        C242   1.472       .  S
C204        H211   1.087       .  S
C204        C205   1.359       .  D
C205        C206   1.533       .  S
C205        C258   1.439       .  S
C206        C208   1.531       .  S
C206        H212   1.112       .  S
C207        H213   1.086       .  S
C207        C208   1.374       .  D
C208        C274   1.439       .  S
C209        H214   1.087       .  S
C209        C210   1.361       .  D
C210        C255   1.429       .  S
C215        C221   1.536       .  S
C215        C219   1.540       .  S
C215        C238   1.472       .  S
C216        H223   1.088       .  S
C216        C217   1.354       .  D
C217        C251   1.442       .  S
C218        C222   1.544       .  S
C218        C220   1.542       .  S
C218        H224   1.111       .  S
C219        H225   1.086       .  S
C219        C220   1.372       .  D
C220        C270   1.452       .  S
C221        H226   1.087       .  S
C221        C222   1.366       .  D
C222        C253   1.453       .  S
C227        C228   1.415   1_455  A
C227        C232   1.406       .  A
C227        C239   1.449       .  S
C228        C229   1.400       .  A
C228        C262   1.449       .  S
C229        C230   1.399       .  A
C229        H234   1.085       .  S
C230        C231   1.411   1_655  A
C230        C243   1.446       .  S
C231        C232   1.404       .  A
C231        C235   1.450       .  S
C232        H233   1.085       .  S
C235        C236   1.209       .  T
C236        C237   1.417       .  S
C237        C238   1.209       .  T
C239        C240   1.210       .  T
C240        C241   1.418       .  S
C241        C242   1.209       .  T
C243        C244   1.208       .  T
C244        C245   1.415       .  S
C245        C246   1.208       .  T
C247        C248   1.215       .  T
C249        C250   1.210       .  T
C251        C252   1.206       .  T
C253        C254   1.212       .  T
C255        C256   1.197       .  T
C257        C258   1.204       .  T
C259        C260   1.209       .  T
C260        C261   1.419       .  S
C261        C262   1.210       .  T
C263        C264   1.204       .  T
C265        C266   1.203       .  T
C267        C268   1.212       .  T
C268        C269   1.423       .  S
C269        C270   1.212       .  T
C271        C272   1.205       .  T
C272        C273   1.412       .  S
C273        C274   1.205       .  T
C275        C276   1.209       .  T
C276        C277   1.417       .  S
C277        C278   1.209       .  T
C279        C280   1.212       .  T
C280        C281   1.422       .  S
C281        C282   1.212       .  T
