geometry optimzed in LAMMPS
_audit_creation_date              2020-11-30 
_audit_creation_method            'lammps2cif' 
_symmetry_space_group_name_H-M    'P1' 
_symmetry_Int_Tables_number       1 
_symmetry_cell_setting            triclinic 
loop_ 
_symmetry_equiv_pos_as_xyz 
  x,y,z 
_cell_length_a                    31.0770926 
_cell_length_b                    31.076999805683496 
_cell_length_c                    36.763005548837526 
_cell_angle_alpha                 90.01040919049704 
_cell_angle_beta                  89.99152553107389 
_cell_angle_gamma                 89.99890421383118 
loop_ 
_atom_site_label 
_atom_site_type_symbol 
_atom_site_fract_x 
_atom_site_fract_y 
_atom_site_fract_z 
_atom_site_charge 
In1        In  0.25231382  0.74888934  0.62707355     1.36900
C2          C  0.20867481  0.68063732  0.65096124     0.79900
O3          O  0.21823990  0.78366966  0.67159944    -0.58600
O4          O  0.20329267  0.80003109  0.61665115    -0.49500
C5          C  0.32143236  0.79105654  0.65098652     0.72500
O6          O  0.31196459  0.75394810  0.66256329    -0.44400
C7          C  0.27034761  0.72998227  0.55837565     0.77200
O8          O  0.24680864  0.68811135  0.66113793    -0.56200
O9          O  0.24291898  0.75761500  0.56763526    -0.46300
O10         O  0.19417081  0.70645347  0.62768485    -0.52700
C11         C  0.19657850  0.80650741  0.65001688     0.87400
O12         O  0.29723414  0.80511192  0.62631996    -0.54500
O13         O  0.28921577  0.71124571  0.58432238    -0.57800
In14       In  0.25097993  0.74769418  0.38148024     1.36900
C15         C  0.31874944  0.79190217  0.35715184     0.79900
O16         O  0.21541738  0.78159274  0.33721882    -0.58600
O17         O  0.19965973  0.79641884  0.39230039    -0.49500
C18         C  0.20956940  0.67797033  0.35786348     0.72500
O19         O  0.24668129  0.68761260  0.34640056    -0.44400
C20         C  0.27001264  0.72966291  0.45015349     0.77200
O21         O  0.31109993  0.75393553  0.34662846    -0.56200
O22         O  0.24194542  0.75665119  0.44093519    -0.46300
O23         O  0.29342909  0.80592150  0.38103948    -0.52700
C24         C  0.19271682  0.80312584  0.35901389     0.87400
O25         O  0.19510548  0.70236015  0.38222552    -0.54500
O26         O  0.28919360  0.71128763  0.42417531    -0.57800
In27       In  0.75311202  0.24613709  0.62645270     1.36900
C28         C  0.79636795  0.31459194  0.65058098     0.79900
O29         O  0.78762092  0.21153600  0.67083679    -0.58600
O30         O  0.80199495  0.19487935  0.61584171    -0.49500
C31         C  0.68419423  0.20357048  0.65035115     0.72500
O32         O  0.69356548  0.24065445  0.66204532    -0.44400
C33         C  0.73514310  0.26510088  0.55774896     0.77200
O34         O  0.75817308  0.30700921  0.66054523    -0.56200
O35         O  0.76312802  0.23804684  0.56701376    -0.46300
O36         O  0.81110304  0.28880542  0.62737685    -0.52700
C37         C  0.80908042  0.18859417  0.64917455     0.87400
O38         O  0.70838577  0.18972489  0.62558430    -0.54500
O39         O  0.71571465  0.28328041  0.58369266    -0.57800
In40       In  0.75511754  0.24676719  0.38102152     1.36900
C41         C  0.68742239  0.20281703  0.35629087     0.79900
O42         O  0.79093236  0.21269032  0.33700033    -0.58600
O43         O  0.80603751  0.19776594  0.39219574    -0.49500
C44         C  0.79684087  0.31635852  0.35759564     0.72500
O45         O  0.75937209  0.30735465  0.34660731    -0.44400
C46         C  0.73573246  0.26508877  0.44957972     0.77200
O47         O  0.69569325  0.24048755  0.34537896    -0.56200
O48         O  0.76373967  0.23795559  0.44052966    -0.46300
O49         O  0.71211279  0.18896767  0.38070167    -0.52700
C50         C  0.81332816  0.19107584  0.35895507     0.87400
O51         O  0.81158058  0.29134332  0.38136784    -0.54500
O52         O  0.71680767  0.28347525  0.42348945    -0.57800
In53       In  0.50281912  0.99734773  0.25383722     1.36900
C54         C  0.45142849  0.93982508  0.28606228     0.79900
O55         O  0.44835797  0.04530776  0.25476602    -0.58600
O56         O  0.48014130  0.03452783  0.20448480    -0.49500
C57         C  0.55427869  0.05505630  0.28573193     0.72500
O58         O  0.52591637  0.03451696  0.30306762    -0.44400
C59         C  0.55385056  0.93933770  0.22177522     0.77200
O60         O  0.47986016  0.96044692  0.30325075    -0.56200
O61         O  0.52556027  0.96008193  0.20453520    -0.46300
O62         O  0.44817729  0.94961834  0.25293210    -0.52700
C63         C  0.45172415  0.05518697  0.22166192     0.87400
O64         O  0.55741958  0.04510047  0.25263102    -0.54500
O65         O  0.55709027  0.94917513  0.25489848    -0.57800
In66       In  0.75439887  0.74913545  0.88083435     1.36900
C67         C  0.79715117  0.68046675  0.85658594     0.79900
O68         O  0.78903967  0.78328936  0.83631578    -0.58600
O69         O  0.80397971  0.79964599  0.89128147    -0.49500
C70         C  0.68518773  0.79155152  0.85723770     0.72500
O71         O  0.69409706  0.75412457  0.84609687    -0.44400
C72         C  0.73678939  0.73054429  0.94965899     0.77200
O73         O  0.75929077  0.68878566  0.84617035    -0.56200
O74         O  0.76387687  0.75841766  0.94022374    -0.46300
O75         O  0.81181078  0.70564562  0.88030019    -0.52700
C76         C  0.81092842  0.80587085  0.85792949     0.87400
O77         O  0.71012193  0.80594975  0.88122744    -0.54500
O78         O  0.71803204  0.71145963  0.92383620    -0.57800
In79       In  0.75563653  0.74809522  0.12676290     1.36900
C80         C  0.68758508  0.79203289  0.15109010     0.79900
O81         O  0.79101870  0.78213846  0.17101444    -0.58600
O82         O  0.80669568  0.79701320  0.11591794    -0.49500
C83         C  0.79700117  0.67829472  0.15039855     0.72500
O84         O  0.75921163  0.68706848  0.16073763    -0.44400
C85         C  0.73720418  0.73009930  0.05796931     0.77200
O86         O  0.69626061  0.75466668  0.16249833    -0.56200
O87         O  0.76477889  0.75750010  0.06736953    -0.46300
O88         O  0.71204718  0.80557391  0.12639036    -0.52700
C89         C  0.81360784  0.80375023  0.14920095     0.87400
O90         O  0.81228715  0.70366824  0.12714098    -0.54500
O91         O  0.71827693  0.71123099  0.08381945    -0.57800
In92       In  0.25182011  0.24587295  0.88095863     1.36900
C93         C  0.20861013  0.31432600  0.85691149     0.79900
O94         O  0.21741662  0.21143977  0.83649661    -0.58600
O95         O  0.20214005  0.19555040  0.89151405    -0.49500
C96         C  0.32099964  0.20353966  0.85717605     0.72500
O97         O  0.31202845  0.24096867  0.84607995    -0.44400
C98         C  0.26964898  0.26457745  0.94968604     0.77200
O99         O  0.24656285  0.30634856  0.84652148    -0.56200
O100        O  0.24292031  0.23630855  0.94035931    -0.46300
O101        O  0.19406530  0.28889489  0.88047848    -0.52700
C102        C  0.19537465  0.18907618  0.85816625     0.87400
O103        O  0.29615893  0.18911566  0.88122641    -0.54500
O104        O  0.28797335  0.28395561  0.92380161    -0.57800
In105      In  0.25067137  0.24709076  0.12664241     1.36900
C106        C  0.31856890  0.20295264  0.15095433     0.79900
O107        O  0.21521081  0.21303645  0.17083249    -0.58600
O108        O  0.19954942  0.19831238  0.11569386    -0.49500
C109        C  0.20940093  0.31692015  0.15031873     0.72500
O110        O  0.24711987  0.30801520  0.16074641    -0.44400
C111        C  0.26921420  0.26515266  0.05791164     0.77200
O112        O  0.31012889  0.24042929  0.16224808    -0.56200
O113        O  0.24156922  0.23779339  0.06724594    -0.46300
O114        O  0.29396720  0.18940706  0.12635836    -0.53700
C115        C  0.19262166  0.19149854  0.14896211     0.87400
O116        O  0.19413114  0.29164351  0.12697522    -0.54500
O117        O  0.28816708  0.28392581  0.08379579    -0.57800
In118      In  0.00342137  0.99753801  0.25402124     1.36900
C119        C  0.95341856  0.05320437  0.28785096     0.79900
O120        O  0.05936566  0.04253389  0.25292615    -0.58600
O121        O  0.02296575  0.03422703  0.20435001    -0.49500
C122        C  0.05366479  0.94196481  0.28769310     0.72500
O123        O  0.02334201  0.96098989  0.30371260    -0.44400
C124        C  0.95237686  0.94270125  0.22046910     0.77200
O125        O  0.98393761  0.03433956  0.30372398    -0.56200
O126        O  0.98337363  0.96071911  0.20456314    -0.46300
O127        O  0.94859498  0.04396999  0.25478471    -0.52700
C128        C  0.05413158  0.05225337  0.22000752     0.87400
O129        O  0.05822259  0.95104830  0.25456911    -0.54500
O130        O  0.94749402  0.95246189  0.25342438    -0.57800
In131      In  0.00307397  0.49737926  0.25438263     1.36900
C132        C  0.94518300  0.44798363  0.28783579     0.79900
O133        O  0.95673049  0.55306643  0.25309992    -0.58600
O134        O  0.96333790  0.51541300  0.20521123    -0.49500
C135        C  0.06107100  0.54665601  0.28783690     0.72500
O136        O  0.04224917  0.51598915  0.30368059    -0.44400
C137        C  0.06176953  0.44883043  0.22090323     0.77200
O138        O  0.96384358  0.47876811  0.30365049    -0.56200
O139        O  0.04248353  0.47920290  0.20505272    -0.46300
O140        O  0.95742664  0.44119376  0.25568155    -0.52700
C141        C  0.94444771  0.54609750  0.22098393     0.87400
O142        O  0.04892168  0.55340336  0.25565166    -0.54500
O143        O  0.04982543  0.44205560  0.25313962    -0.57800
In144      In  0.50296857  0.99735250  0.75420227     1.36900
C145        C  0.45350556  0.93936120  0.72085422     0.79900
O146        O  0.55871625  0.95116553  0.75561626    -0.58600
O147        O  0.52101291  0.95770350  0.80348269    -0.49500
C148        C  0.55238061  0.05513616  0.72050054     0.72500
O149        O  0.52122894  0.03681934  0.70489858    -0.44400
C150        C  0.45406803  0.05586251  0.78761487     0.77200
O151        O  0.48445794  0.95777408  0.70504356    -0.56200
O152        O  0.48525957  0.03761893  0.80321940    -0.46300
O153        O  0.44675070  0.95175380  0.75297145    -0.52700
C154        C  0.55184396  0.93897094  0.78776307     0.87400
O155        O  0.55936387  0.04273387  0.75257145    -0.54500
O156        O  0.44684710  0.04310342  0.75567805    -0.57800
In157      In  0.00280285  0.49717568  0.75353852     1.36900
C158        C  0.06083552  0.44684091  0.78616862     0.79900
O159        O  0.95524407  0.44244626  0.75395773    -0.58600
O160        O  0.96515848  0.47555007  0.70413991    -0.49500
C161        C  0.94459339  0.54754969  0.78586013     0.72500
O162        O  0.96467293  0.51849803  0.80275519    -0.44400
C163        C  0.06061955  0.54787157  0.72106909     0.77200
O164        O  0.04112917  0.47635839  0.80280122    -0.56200
O165        O  0.04087858  0.51849600  0.70428489    -0.46300
O166        O  0.04978355  0.44191276  0.75347182    -0.52700
C167        C  0.94480762  0.44668828  0.72104644     0.87400
O168        O  0.95534707  0.55198445  0.75304007    -0.54500
O169        O  0.04973676  0.55243642  0.75384322    -0.57800
In170      In  0.00289474  0.99793784  0.75369823     1.36900
C171        C  0.05782230  0.94550673  0.72172012     0.79900
O172        O  0.04968719  0.05244442  0.75254678    -0.58600
O173        O  0.03568684  0.02283646  0.80343759    -0.49500
C174        C  0.94841492  0.05038160  0.72113500     0.72500
O175        O  0.97411271  0.02692999  0.70362945    -0.44400
C176        C  0.94945347  0.94445041  0.78596669     0.77200
O177        O  0.03224088  0.96879693  0.70394902    -0.56200
O178        O  0.96935348  0.97322164  0.80315806    -0.46300
O179        O  0.05549676  0.94891679  0.75576563    -0.52700
C180        C  0.05624569  0.05118074  0.78629721     0.87400
O181        O  0.95040651  0.04713640  0.75520367    -0.54500
O182        O  0.95662412  0.94295551  0.75230846    -0.57800
C183        C  0.09568833  0.42429326  0.20394826    -0.16200
C184        C  0.12481119  0.40338106  0.19111784     0.07800
C185        C  0.15813718  0.37705971  0.17692427     0.09700
C186        C  0.18407582  0.35173740  0.16493035    -0.17100
C187        C  0.08185758  0.08170641  0.20174000    -0.16200
C188        C  0.10612643  0.10663031  0.18758892     0.07800
C189        C  0.13548715  0.13598431  0.17264806     0.09700
C190        C  0.16130532  0.16128821  0.16119578    -0.17100
C191        C  0.09423485  0.42127275  0.80283350    -0.16200
C192        C  0.12300530  0.39979993  0.81560824     0.07800
C193        C  0.15619209  0.37333404  0.82990709     0.09700
C194        C  0.18238180  0.34836223  0.84207132    -0.17100
C195        C  0.35548722  0.17768229  0.84264036    -0.16200
C196        C  0.38084597  0.15161420  0.83088432     0.07800
C197        C  0.40760162  0.11840213  0.81705687     0.09700
C198        C  0.42904212  0.08950261  0.80447643    -0.17100
C199        C  0.08516070  0.07992840  0.80394204    -0.16200
C200        C  0.10982990  0.10433216  0.81818466     0.07800
C201        C  0.13915095  0.13326548  0.83364973     0.09700
C202        C  0.16467748  0.15850308  0.84559109    -0.17100
C203        C  0.27764063  0.27341013  0.02018724    -0.11000
C204        C  0.27773835  0.27322959  0.98740089    -0.12600
C205        C  0.92445253  0.91324586  0.20239995    -0.16200
C206        C  0.90011096  0.88839150  0.18823362     0.07800
C207        C  0.87073694  0.85915140  0.17312850     0.09700
C208        C  0.84492185  0.83392884  0.16152477    -0.17100
C209        C  0.82237262  0.64351086  0.16501528    -0.16200
C210        C  0.84829745  0.61818746  0.17702537     0.07800
C211        C  0.88155804  0.59179429  0.19123919     0.09700
C212        C  0.91060283  0.57077759  0.20406917    -0.17100
C213        C  0.84161289  0.83644570  0.84528520    -0.16200
C214        C  0.86703361  0.86174903  0.83326010     0.07800
C215        C  0.89615463  0.89085176  0.81771442     0.09700
C216        C  0.92064597  0.91545446  0.80347803    -0.17100
C217        C  0.82317775  0.64634354  0.84161412    -0.16200
C218        C  0.84924979  0.62128518  0.82938535     0.07800
C219        C  0.88236778  0.59471407  0.81509482     0.09700
C220        C  0.91113487  0.57316878  0.80239409    -0.17100
C221        C  0.65064708  0.81741717  0.84282170    -0.16200
C222        C  0.62521406  0.84344740  0.83113849     0.07800
C223        C  0.59836398  0.87659064  0.81734444     0.09700
C224        C  0.57687122  0.90542206  0.80473333    -0.17100
C225        C  0.72874411  0.72203285  0.98741821    -0.11000
C226        C  0.72883418  0.72189035  0.02021302    -0.12600
C227        C  0.35220036  0.17618515  0.16586604    -0.16200
C228        C  0.37708100  0.14988163  0.17804507     0.07800
C229        C  0.40378036  0.11682872  0.19234524     0.09700
C230        C  0.42563228  0.08829815  0.20509239    -0.17100
C231        C  0.65383641  0.81868557  0.16598111    -0.16200
C232        C  0.62881211  0.84486064  0.17816187     0.07800
C233        C  0.60193989  0.87777159  0.19248247     0.09700
C234        C  0.57998372  0.90622617  0.20523591    -0.17100
C235        C  0.82250372  0.35096473  0.34313127    -0.16200
C236        C  0.84872573  0.37607984  0.33132086     0.07800
C237        C  0.88229078  0.40221180  0.31736109     0.09700
C238        C  0.91146741  0.42313899  0.30468697    -0.17100
C239        C  0.92572709  0.08278418  0.30610138    -0.16200
C240        C  0.90113349  0.10740210  0.32029223     0.07800
C241        C  0.87119261  0.13617312  0.33532871     0.09700
C242        C  0.84494292  0.16104924  0.34681777    -0.17100
C243        C  0.65384866  0.17616987  0.34118805    -0.16200
C244        C  0.62903180  0.14985982  0.32895748     0.07800
C245        C  0.60239096  0.11674275  0.31472786     0.09700
C246        C  0.58051281  0.08816283  0.30211558    -0.17100
C247        C  0.82266005  0.34857144  0.66548497    -0.16200
C248        C  0.84901358  0.37341692  0.67761003     0.07800
C249        C  0.88241749  0.39973829  0.69178526     0.09700
C250        C  0.91132998  0.42113165  0.70444865    -0.17100
C251        C  0.91904148  0.07886935  0.70355293    -0.16200
C252        C  0.89419972  0.10321320  0.68934751     0.07800
C253        C  0.86488332  0.13223226  0.67380368     0.09700
C254        C  0.83951626  0.15764396  0.66176651    -0.17100
C255        C  0.65007572  0.17737884  0.66505256    -0.16200
C256        C  0.62510782  0.15102673  0.67692844     0.07800
C257        C  0.59876359  0.11756859  0.69086502     0.09700
C258        C  0.57750101  0.08860396  0.70352814    -0.17100
C259        C  0.72681225  0.27359786  0.52002925    -0.11000
C260        C  0.72695370  0.27356211  0.48723260    -0.12600
C261        C  0.35229868  0.81867322  0.34212757    -0.16200
C262        C  0.37700343  0.84505978  0.32982818     0.07800
C263        C  0.40348873  0.87821555  0.31542280     0.09700
C264        C  0.42525962  0.90678144  0.30263622    -0.17100
C265        C  0.08134428  0.91227842  0.30583275    -0.16200
C266        C  0.10572297  0.88741928  0.31998330     0.07800
C267        C  0.13529175  0.85829261  0.33505851     0.09700
C268        C  0.16125843  0.83319619  0.34666166    -0.17100
C269        C  0.09485594  0.57141970  0.30469461    -0.16200
C270        C  0.12407918  0.59227813  0.31738685     0.07800
C271        C  0.15768683  0.61834218  0.33139171     0.09700
C272        C  0.18392645  0.64340594  0.34326953    -0.17100
C273        C  0.35565850  0.81706941  0.66571317    -0.16200
C274        C  0.38068473  0.84336611  0.67758014     0.07800
C275        C  0.40706179  0.87682171  0.69146121     0.09700
C276        C  0.42834744  0.90581858  0.70403832    -0.17100
C277        C  0.16636929  0.83760047  0.66272900    -0.16200
C278        C  0.14124374  0.86320537  0.67482792     0.07800
C279        C  0.11215785  0.89245967  0.69035410     0.09700
C280        C  0.08736285  0.91694991  0.70443245    -0.17100
C281        C  0.09389389  0.57367330  0.70449077    -0.16200
C282        C  0.12263440  0.59529301  0.69184982     0.07800
C283        C  0.15589492  0.62180125  0.67773271     0.09700
C284        C  0.18223039  0.64670829  0.66570108    -0.17100
C285        C  0.27865155  0.72140910  0.52065895    -0.11000
C286        C  0.27859662  0.72134261  0.48786061    -0.12600
loop_ 
_geom_bond_atom_site_label_1 
_geom_bond_atom_site_label_2 
_geom_bond_distance 
_geom_bond_site_symmetry_2 
_ccdc_geom_bond_type 
In1           O3   2.229       .  S
In1           O4   2.235       .  S
In1          O12   2.237       .  S
In1           O6   2.272       .  S
In1           O8   2.273       .  S
In1           O9   2.221       .  S
In1          O10   2.237       .  S
In1          O13   2.270       .  S
C2            O8   1.264       .  A
C2           O10   1.257       .  A
C2          C284   1.443       .  S
O3           C11   1.260       .  A
O4           C11   1.260       .  A
C5           O12   1.257       .  A
C5            O6   1.264       .  A
C5          C273   1.442       .  S
C7            O9   1.257       .  A
C7           O13   1.262       .  A
C7          C285   1.435       .  S
C11         C277   1.426       .  S
In14         O16   2.232       .  S
In14         O17   2.235       .  S
In14         O25   2.236       .  S
In14         O19   2.273       .  S
In14         O21   2.274       .  S
In14         O22   2.221       .  S
In14         O23   2.239       .  S
In14         O26   2.271       .  S
C15          O21   1.264       .  A
C15          O23   1.257       .  A
C15         C261   1.444       .  S
O16          C24   1.260       .  A
O17          C24   1.260       .  A
C18          O25   1.256       .  A
C18          O19   1.264       .  A
C18         C272   1.441       .  S
C20          O22   1.257       .  A
C20          O26   1.262       .  A
C20         C286   1.435       .  S
C24         C268   1.427       .  S
In27         O29   2.229       .  S
In27         O30   2.235       .  S
In27         O38   2.238       .  S
In27         O32   2.273       .  S
In27         O34   2.275       .  S
In27         O35   2.221       .  S
In27         O36   2.238       .  S
In27         O39   2.271       .  S
C28          O34   1.264       .  A
C28          O36   1.257       .  A
C28         C247   1.443       .  S
O29          C37   1.260       .  A
O30          C37   1.260       .  A
C31          O38   1.257       .  A
C31          O32   1.264       .  A
C31         C255   1.442       .  S
C33          O35   1.257       .  A
C33          O39   1.262       .  A
C33         C259   1.435       .  S
C37         C254   1.426       .  S
In40         O42   2.231       .  S
In40         O43   2.234       .  S
In40         O51   2.236       .  S
In40         O45   2.272       .  S
In40         O47   2.273       .  S
In40         O48   2.221       .  S
In40         O49   2.239       .  S
In40         O52   2.270       .  S
C41          O47   1.264       .  A
C41          O49   1.257       .  A
C41         C243   1.443       .  S
O42          C50   1.260       .  A
O43          C50   1.260       .  A
C44          O51   1.256       .  A
C44          O45   1.264       .  A
C44         C235   1.441       .  S
C46          O48   1.257       .  A
C46          O52   1.262       .  A
C46         C260   1.435       .  S
C50         C242   1.426       .  S
In53         O55   2.255   1_565  S
In53         O56   2.264   1_565  S
In53         O64   2.255   1_565  S
In53         O58   2.264   1_565  S
In53         O60   2.264       .  S
In53         O61   2.264       .  S
In53         O62   2.255       .  S
In53         O65   2.255       .  S
C54          O60   1.261       .  A
C54          O62   1.260       .  A
C54         C264   1.445       .  S
O55          C63   1.260       .  A
O56          C63   1.261       .  A
C57          O64   1.259       .  A
C57          O58   1.261       .  A
C57         C246   1.444       .  S
C59          O61   1.261       .  A
C59          O65   1.259       .  A
C59         C234   1.445       .  S
C63         C230   1.445       .  S
In66         O68   2.228       .  S
In66         O69   2.233       .  S
In66         O77   2.238       .  S
In66         O71   2.273       .  S
In66         O73   2.272       .  S
In66         O74   2.222       .  S
In66         O75   2.238       .  S
In66         O78   2.269       .  S
C67          O73   1.264       .  A
C67          O75   1.257       .  A
C67         C217   1.443       .  S
O68          C76   1.260       .  A
O69          C76   1.260       .  A
C70          O77   1.256       .  A
C70          O71   1.264       .  A
C70         C221   1.442       .  S
C72          O74   1.257       .  A
C72          O78   1.262       .  A
C72         C225   1.435       .  S
C76         C213   1.424       .  S
In79         O81   2.230       .  S
In79         O82   2.233       .  S
In79         O90   2.237       .  S
In79         O84   2.274       .  S
In79         O86   2.274       .  S
In79         O87   2.221       .  S
In79         O88   2.242       .  S
In79         O91   2.270       .  S
C80          O86   1.264       .  A
C80          O88   1.257       .  A
C80         C231   1.444       .  S
O81          C89   1.260       .  A
O82          C89   1.260       .  A
C83          O90   1.256       .  A
C83          O84   1.264       .  A
C83         C209   1.442       .  S
C85          O87   1.257       .  A
C85          O91   1.262       .  A
C85         C226   1.435       .  S
C89         C208   1.425       .  S
In92         O94   2.227       .  S
In92         O95   2.232       .  S
In92        O103   2.238       .  S
In92         O97   2.273       .  S
In92         O99   2.272       .  S
In92        O100   2.221       .  S
In92        O101   2.238       .  S
In92        O104   2.268       .  S
C93          O99   1.264       .  A
C93         O101   1.257       .  A
C93         C194   1.443       .  S
O94         C102   1.260       .  A
O95         C102   1.260       .  A
C96         O103   1.256       .  A
C96          O97   1.264       .  A
C96         C195   1.442       .  S
C98         O100   1.257       .  A
C98         O104   1.262       .  A
C98         C204   1.435       .  S
C102        C202   1.424       .  S
In105       O107   2.230       .  S
In105       O108   2.232       .  S
In105       O116   2.237       .  S
In105       O110   2.273       .  S
In105       O112   2.274       .  S
In105       O113   2.221       .  S
In105       O114   2.241       .  S
In105       O117   2.269       .  S
C106        O112   1.264       .  A
C106        O114   1.257       .  A
C106        C227   1.444       .  S
O107        C115   1.260       .  A
O108        C115   1.260       .  A
C109        O116   1.256       .  A
C109        O110   1.264       .  A
C109        C186   1.442       .  S
C111        O113   1.257       .  A
C111        O117   1.262       .  A
C111        C203   1.435       .  S
C115        C190   1.425       .  S
In118       O120   2.232   1_565  S
In118       O121   2.237   1_565  S
In118       O129   2.233       .  S
In118       O123   2.239       .  S
In118       O125   2.239   1_465  S
In118       O126   2.237   1_455  S
In118       O127   2.233   1_465  S
In118       O130   2.232   1_455  S
C119        O125   1.259       .  A
C119        O127   1.258       .  A
C119        C239   1.427       .  S
O120        C128   1.258       .  A
O121        C128   1.258       .  A
C122        O129   1.258       .  A
C122        O123   1.259       .  A
C122        C265   1.427       .  S
C124        O126   1.258       .  A
C124        O130   1.258       .  A
C124        C205   1.426       .  S
C128        C187   1.425       .  S
In131       O133   2.252   1_455  S
In131       O134   2.260   1_455  S
In131       O142   2.250       .  S
In131       O136   2.259       .  S
In131       O138   2.259   1_455  S
In131       O139   2.260       .  S
In131       O140   2.250   1_455  S
In131       O143   2.251       .  S
C132        O138   1.261       .  A
C132        O140   1.260       .  A
C132        C238   1.441       .  S
O133        C141   1.260       .  A
O134        C141   1.261       .  A
C135        O142   1.260       .  A
C135        O136   1.261       .  A
C135        C269   1.442       .  S
C137        O139   1.261       .  A
C137        O143   1.260       .  A
C137        C183   1.442       .  S
C141        C212   1.443       .  S
In144       O146   2.250       .  S
In144       O147   2.262       .  S
In144       O155   2.250   1_565  S
In144       O149   2.261   1_565  S
In144       O151   2.260       .  S
In144       O152   2.262   1_565  S
In144       O153   2.250       .  S
In144       O156   2.251   1_565  S
C145        O151   1.261       .  A
C145        O153   1.259       .  A
C145        C276   1.442       .  S
O146        C154   1.259       .  A
O147        C154   1.261       .  A
C148        O155   1.259       .  A
C148        O149   1.261       .  A
C148        C258   1.442       .  S
C150        O152   1.261       .  A
C150        O156   1.259       .  A
C150        C198   1.443       .  S
C154        C224   1.443       .  S
In157       O159   2.253   1_455  S
In157       O160   2.262   1_455  S
In157       O168   2.253   1_455  S
In157       O162   2.262   1_455  S
In157       O164   2.262       .  S
In157       O165   2.262       .  S
In157       O166   2.254       .  S
In157       O169   2.253       .  S
C158        O164   1.261       .  A
C158        O166   1.260       .  A
C158        C191   1.444       .  S
O159        C167   1.260       .  A
O160        C167   1.261       .  A
C161        O168   1.260       .  A
C161        O162   1.261       .  A
C161        C220   1.444       .  S
C163        O165   1.261       .  A
C163        O169   1.259       .  A
C163        C281   1.444       .  S
C167        C250   1.444       .  S
In170       O172   2.233   1_565  S
In170       O173   2.232   1_565  S
In170       O181   2.236   1_465  S
In170       O175   2.236   1_465  S
In170       O177   2.235       .  S
In170       O178   2.232   1_455  S
In170       O179   2.236       .  S
In170       O182   2.234   1_455  S
C171        O177   1.258       .  A
C171        O179   1.258       .  A
C171        C280   1.426       .  S
O172        C180   1.258       .  A
O173        C180   1.257       .  A
C174        O181   1.258       .  A
C174        O175   1.258       .  A
C174        C251   1.427       .  S
C176        O178   1.257       .  A
C176        O182   1.258       .  A
C176        C216   1.424       .  S
C180        C199   1.424       .  S
C183        C184   1.210       .  T
C184        C185   1.419       .  S
C185        C186   1.210       .  T
C187        C188   1.200       .  T
C188        C189   1.402       .  S
C189        C190   1.200       .  T
C191        C192   1.211       .  T
C192        C193   1.420       .  S
C193        C194   1.210       .  T
C195        C196   1.210       .  T
C196        C197   1.419       .  S
C197        C198   1.210       .  T
C199        C200   1.199       .  T
C200        C201   1.401       .  S
C201        C202   1.199       .  T
C203        C204   1.205   1_554  T
C205        C206   1.200       .  T
C206        C207   1.403       .  S
C207        C208   1.200       .  T
C209        C210   1.210       .  T
C210        C211   1.419       .  S
C211        C212   1.210       .  T
C213        C214   1.199       .  T
C214        C215   1.401       .  S
C215        C216   1.199       .  T
C217        C218   1.210       .  T
C218        C219   1.420       .  S
C219        C220   1.210       .  T
C221        C222   1.210       .  T
C222        C223   1.419       .  S
C223        C224   1.210       .  T
C225        C226   1.206   1_556  T
C227        C228   1.211       .  T
C228        C229   1.421       .  S
C229        C230   1.211       .  T
C231        C232   1.211       .  T
C232        C233   1.421       .  S
C233        C234   1.211       .  T
C235        C236   1.209       .  T
C236        C237   1.418       .  S
C237        C238   1.209       .  T
C239        C240   1.201       .  T
C240        C241   1.404       .  S
C241        C242   1.201       .  T
C243        C244   1.211       .  T
C244        C245   1.421       .  S
C245        C246   1.211       .  T
C247        C248   1.211       .  T
C248        C249   1.421       .  S
C249        C250   1.211       .  T
C251        C252   1.201       .  T
C252        C253   1.404       .  S
C253        C254   1.200       .  T
C255        C256   1.210       .  T
C256        C257   1.419       .  S
C257        C258   1.210       .  T
C259        C260   1.206       .  T
C261        C262   1.211       .  T
C262        C263   1.421       .  S
C263        C264   1.211       .  T
C265        C266   1.201       .  T
C266        C267   1.404       .  S
C267        C268   1.201       .  T
C269        C270   1.209       .  T
C270        C271   1.418       .  S
C271        C272   1.209       .  T
C273        C274   1.210       .  T
C274        C275   1.419       .  S
C275        C276   1.210       .  T
C277        C278   1.200       .  T
C278        C279   1.403       .  S
C279        C280   1.200       .  T
C281        C282   1.210       .  T
C282        C283   1.420       .  S
C283        C284   1.210       .  T
C285        C286   1.206       .  T
