geometry optimzed in LAMMPS
_audit_creation_date              2020-11-30 
_audit_creation_method            'lammps2cif' 
_symmetry_space_group_name_H-M    'P1' 
_symmetry_Int_Tables_number       1 
_symmetry_cell_setting            triclinic 
loop_ 
_symmetry_equiv_pos_as_xyz 
  x,y,z 
_cell_length_a                    42.88123982 
_cell_length_b                    43.13960542226163 
_cell_length_c                    24.719585092688924 
_cell_angle_alpha                 91.62838794216134 
_cell_angle_beta                  89.14776619017265 
_cell_angle_gamma                 121.79825665260955 
loop_ 
_atom_site_label 
_atom_site_type_symbol 
_atom_site_fract_x 
_atom_site_fract_y 
_atom_site_fract_z 
_atom_site_charge 
C1          C  0.70087969  0.33646367  0.01204436     0.79800
N2          N  0.66526680  0.30845796  0.01048041    -0.78500
C3          C  0.63746468  0.31478743  0.01546702     0.82200
N4          N  0.64566690  0.34972255  0.02173495    -0.78500
C5          C  0.68113845  0.37813119  0.02325171     0.82300
N6          N  0.70857340  0.37122652  0.01847781    -0.80200
C7          C  0.31956662  0.68740320  0.96523381     0.79800
N8          N  0.28964021  0.65287014  0.96370650    -0.78500
C9          C  0.29349537  0.62352710  0.96287888     0.82200
N10         N  0.32775088  0.62905003  0.96369160    -0.78500
C11         C  0.35796464  0.66331637  0.96509935     0.82300
N12         N  0.35361826  0.69235193  0.96592516    -0.79900
C13         C  0.67850254  0.71744268  0.01431691     0.86100
C14         C  0.70129249  0.73909524  0.06467449    -0.54200
C15         C  0.73522553  0.74327482  0.06696264     0.09000
C16         C  0.74306107  0.72487041  0.01867150     0.19900
C17         C  0.70359827  0.73764673  0.96641429    -0.54900
C18         C  0.73737607  0.74167037  0.96834390     0.09100
C19         C  0.67720782  0.68128453  0.01575056    -0.54400
C20         C  0.71074233  0.68477214  0.01737994     0.09700
H21         H  0.69197225  0.75013124  0.09629873     0.14200
H22         H  0.77039211  0.72791706  0.01968202    -0.00100
H23         H  0.69539192  0.74850162  0.93421835     0.14500
H24         H  0.65159756  0.65498978  0.01519339     0.14300
C25         C  0.98749286  0.25138693  0.08679412     0.86100
C26         C  0.02135140  0.28967980  0.07846841    -0.54200
C27         C  0.02172191  0.30486544  0.03037765     0.09000
C28         C  0.98744035  0.28024628  0.99513651     0.19900
C29         C  0.95482471  0.25645986  0.08002247    -0.54900
C30         C  0.95435331  0.27115300  0.03187441     0.09100
C31         C  0.98616406  0.22918830  0.03657324    -0.54400
C32         C  0.98646969  0.24412772  0.98855721     0.09700
H33         H  0.04322295  0.30341607  0.10814366     0.14200
H34         H  0.98765997  0.29218569  0.95589573    -0.00100
H35         H  0.93432373  0.25032189  0.11082483     0.14500
H36         H  0.98504108  0.20351816  0.03913630     0.14300
C37         C  0.28450099  0.96250139  0.01172173     0.86100
C38         C  0.26457452  0.96571428  0.06200915    -0.54200
C39         C  0.26333265  0.99680164  0.06470148     0.09000
C40         C  0.28197715  0.02184159  0.01603156     0.19900
C41         C  0.26466748  0.96642957  0.96383642    -0.54900
C42         C  0.26283229  0.99716094  0.96565131     0.09100
C43         C  0.32227283  0.99790964  0.01332880    -0.54400
C44         C  0.32128091  0.02904961  0.01529850     0.09700
H45         H  0.25194836  0.94542440  0.09283053     0.14200
H46         H  0.28127036  0.04715210  0.01846989    -0.00100
H47         H  0.25347381  0.94638116  0.93084527     0.14500
H48         H  0.34775959  0.99820389  0.01208009     0.14300
O49         O  0.93907153  0.95078293  0.56854114    -0.85800
O50         O  0.97353416  0.02381064  0.59621748    -0.82800
C51         C  0.99822227  0.05713823  0.60035513     0.97700
O52         O  0.02535594  0.07066683  0.56826580    -0.82900
O53         O  0.06509071  0.03921789  0.59246688    -0.85500
C54         C  0.07258017  0.01478174  0.59698258     1.02200
O55         O  0.05857965  0.98740271  0.56465864    -0.78300
O56         O  0.98562850  0.94666361  0.59281567    -0.78500
C57         C  0.95305553  0.93867800  0.59998841     1.02200
O58         O  0.94966753  0.96997933  0.45629761    -0.85800
O59         O  0.97752698  0.04171016  0.48467220    -0.82800
C60         C  0.00358096  0.05904258  0.45163002     0.97700
O61         O  0.03240254  0.05812682  0.45509445    -0.82900
O62         O  0.07785114  0.03313929  0.47905122    -0.85500
C63         C  0.06801708  0.00638702  0.44640144     1.02200
O64         O  0.03749422  0.97717600  0.45246234    -0.78300
O65         O  0.96506461  0.93123512  0.47979806    -0.78400
C66         C  0.94794296  0.94011629  0.44867428     1.02100
Cr67       Cr  0.96335574  0.99689057  0.52631173     1.93700
Cr68       Cr  0.04710850  0.04682773  0.52382641     1.93200
Cr69       Cr  0.01135692  0.96361083  0.52263061     1.39100
O70         O  0.00730023  0.00243679  0.52441384    -1.23500
C71         C  0.09291268  0.00911060  0.40182514    -0.03800
C72         C  0.08332500  0.97892556  0.36716202    -0.09500
C73         C  0.10688443  0.98145439  0.32534750    -0.17200
C74         C  0.14034336  0.01415390  0.31736689     0.24900
C75         C  0.15014559  0.04433973  0.35163977    -0.18900
C76         C  0.12664349  0.04186751  0.39356378    -0.07800
C77         C  0.16456459  0.01647408  0.27423784    -0.14200
C78         C  0.18406549  0.01679443  0.23812663    -0.14000
C79         C  0.20625102  0.01454106  0.19545297     0.24800
C80         C  0.22546515  0.99720243  0.20474277    -0.19400
C81         C  0.24487990  0.99247244  0.16273560    -0.07800
C82         C  0.24521314  0.00476192  0.11038422    -0.03900
C83         C  0.22681543  0.02323393  0.10177449    -0.09200
C84         C  0.20741665  0.02802589  0.14403579    -0.16900
H85         H  0.05764356  0.95329542  0.37239795     0.11300
H86         H  0.09898734  0.95785518  0.29922497     0.10600
H87         H  0.17596874  0.06978707  0.34600689     0.10500
H88         H  0.13489219  0.06561764  0.41947284     0.11000
H89         H  0.22498380  0.98679697  0.24433095     0.11100
H90         H  0.25946066  0.97895375  0.17131495     0.11100
H91         H  0.22622807  0.03278222  0.06200738     0.11200
H92         H  0.19262843  0.04147663  0.13626045     0.10000
C93         C  0.24338368  0.00475904  0.92326756    -0.03800
C94         C  0.21434257  0.97575746  0.89355944    -0.09500
C95         C  0.19679375  0.98249222  0.85256475    -0.17200
C96         C  0.20755417  0.01825500  0.84064932     0.24900
C97         C  0.23591709  0.04737804  0.87037664    -0.18900
C98         C  0.25364437  0.04068445  0.91152925    -0.07800
C99         C  0.18884238  0.02444498  0.79827875    -0.14200
C100        C  0.17095775  0.02611704  0.76250166    -0.14000
C101        C  0.14743390  0.02438354  0.71990654     0.24800
C102        C  0.13755317  0.05050682  0.71743656    -0.19400
C103        C  0.11334627  0.04760161  0.67731469    -0.07800
C104        C  0.09861452  0.01840709  0.63922664    -0.03900
C105        C  0.10898952  0.99249111  0.64187398    -0.09200
C106        C  0.13319902  0.99549534  0.68187674    -0.16900
H107        H  0.20466545  0.94765904  0.90223613     0.11300
H108        H  0.17462860  0.95968715  0.83026066     0.10600
H109        H  0.24439039  0.07522454  0.86169136     0.10500
H110        H  0.27563799  0.06370984  0.93333712     0.11000
H111        H  0.14827507  0.07291135  0.74678657     0.11100
H112        H  0.10594402  0.06801384  0.67639603     0.11100
H113        H  0.09828459  0.96975172  0.61315296     0.11200
H114        H  0.14053579  0.97503840  0.68346329     0.10000
C115        C  0.98708931  0.22702573  0.93594525    -0.03800
C116        C  0.00634370  0.20889718  0.93128346    -0.09500
C117        C  0.00520226  0.19050622  0.88340787    -0.17200
C118        C  0.98499723  0.19002666  0.83924078     0.24900
C119        C  0.96647712  0.20880342  0.84277426    -0.18900
C120        C  0.96762039  0.22737207  0.89094698    -0.07800
C121        C  0.98306682  0.16937097  0.79129956    -0.14200
C122        C  0.98362504  0.15053197  0.75478951    -0.14000
C123        C  0.98660770  0.12727187  0.71486900     0.24800
C124        C  0.01785055  0.14127675  0.68213581    -0.19400
C125        C  0.02180935  0.11838320  0.64530202    -0.07800
C126        C  0.99456470  0.08105342  0.64081472    -0.03900
C127        C  0.96322540  0.06721215  0.67392573    -0.09200
C128        C  0.95932234  0.09019686  0.71072570    -0.16900
H129        H  0.02228391  0.20882515  0.96478486     0.11300
H130        H  0.01983131  0.17629859  0.88103634     0.10600
H131        H  0.95076359  0.20862163  0.80872840     0.10500
H132        H  0.95240586  0.24095067  0.89354349     0.11000
H133        H  0.03929319  0.16986187  0.68534363     0.11100
H134        H  0.04619920  0.12994444  0.62031790     0.11100
H135        H  0.94167536  0.03866476  0.67130353     0.11200
H136        H  0.93515801  0.07899957  0.73619996     0.10000
C137        C  0.98915435  0.23323577  0.13793582    -0.03800
C138        C  0.02041522  0.23110202  0.14643312    -0.09500
C139        C  0.02158481  0.21083911  0.18853777    -0.17200
C140        C  0.99145901  0.19204569  0.22291469     0.24900
C141        C  0.96046556  0.19438229  0.21585852    -0.18900
C142        C  0.95921308  0.21474499  0.17377112    -0.07800
C143        C  0.99190924  0.16909313  0.26368419    -0.14200
C144        C  0.99313597  0.14948558  0.29629429    -0.14000
C145        C  0.99538506  0.12614351  0.33449248     0.24800
C146        C  0.96820574  0.10888789  0.37392778    -0.19400
C147        C  0.97068923  0.08671005  0.41157416    -0.07800
C148        C  0.00052282  0.08157663  0.41042147    -0.03900
C149        C  0.02755758  0.09877329  0.37031133    -0.09200
C150        C  0.02493586  0.12086350  0.33255138    -0.16900
H151        H  0.04362636  0.24426914  0.11918022     0.11300
H152        H  0.04567659  0.20908352  0.19339713     0.10600
H153        H  0.93683800  0.17966857  0.24203411     0.10500
H154        H  0.93405200  0.21426696  0.16866274     0.11000
H155        H  0.94519753  0.11273844  0.37578800     0.11100
H156        H  0.94943861  0.07392506  0.44197187     0.11100
H157        H  0.05077659  0.09528123  0.36824250     0.11200
H158        H  0.04608527  0.13402146  0.30206990     0.10000
C159        C  0.76584969  0.76162261  0.92647423    -0.03800
C160        C  0.80295483  0.78452499  0.94099973    -0.09500
C161        C  0.82927156  0.80539318  0.90188880    -0.17200
C162        C  0.81881746  0.80337451  0.84782540     0.24900
C163        C  0.78206965  0.77996097  0.83294254    -0.18900
C164        C  0.75578011  0.75924260  0.87190177    -0.07800
C165        C  0.84523214  0.82616102  0.80770116    -0.14200
C166        C  0.86550429  0.84544118  0.77255083    -0.14000
C167        C  0.88771412  0.86872994  0.72928984     0.24800
C168        C  0.87387547  0.88478275  0.69672476    -0.19400
C169        C  0.89510229  0.90742711  0.65468444    -0.07800
C170        C  0.93062780  0.91444612  0.64453588    -0.03900
C171        C  0.94435179  0.89818708  0.67748001    -0.09200
C172        C  0.92298806  0.87543986  0.71951405    -0.16900
H173        H  0.81143183  0.78725082  0.98279046     0.11300
H174        H  0.85761016  0.82353455  0.91396376     0.10600
H175        H  0.77362402  0.77808861  0.79127449     0.10500
H176        H  0.72750393  0.74146566  0.85934581     0.11000
H177        H  0.84662812  0.87981348  0.70385286     0.11100
H178        H  0.88370105  0.91953471  0.63024423     0.11100
H179        H  0.97155387  0.90299569  0.67074373     0.11200
H180        H  0.93399809  0.86314386  0.74439474     0.10000
C181        C  0.76221033  0.76490806  0.11084125    -0.03800
C182        C  0.76360127  0.79560357  0.13494271    -0.09500
C183        C  0.78847256  0.81560264  0.17664244    -0.17200
C184        C  0.81240294  0.80534685  0.19500755     0.24900
C185        C  0.81158822  0.77516413  0.17091570    -0.18900
C186        C  0.78679838  0.75519925  0.12898898    -0.07800
C187        C  0.83759408  0.82588020  0.23859722    -0.14200
C188        C  0.85784908  0.84431248  0.27520413    -0.14000
C189        C  0.88089345  0.86816823  0.31860838     0.24800
C190        C  0.90137476  0.85876816  0.35032918    -0.19400
C191        C  0.92329647  0.88209895  0.39272167    -0.07800
C192        C  0.92499424  0.91515529  0.40384953    -0.03900
C193        C  0.90440307  0.92432773  0.37153014    -0.09200
C194        C  0.88254615  0.90101065  0.32937633    -0.16900
H195        H  0.74576100  0.80448772  0.12121327     0.11300
H196        H  0.78899869  0.83907825  0.19461588     0.10600
H197        H  0.83000195  0.76695825  0.18466333     0.10500
H198        H  0.78655408  0.73185640  0.11159239     0.11000
H199        H  0.90033882  0.83341386  0.34240226     0.11100
H200        H  0.93886790  0.87427601  0.41672978     0.11100
H201        H  0.90505115  0.94952789  0.37888233     0.11200
H202        H  0.86683473  0.90860113  0.30518901     0.10000
C203        C  0.26078289  0.58584221  0.96218130    -0.03800
C204        C  0.22509201  0.57953840  0.95940110    -0.09500
C205        C  0.19439130  0.54395162  0.96035498    -0.17200
C206        C  0.19891381  0.51421381  0.96407379     0.24900
C207        C  0.23425792  0.52018711  0.96618350    -0.18900
C208        C  0.26494944  0.55566269  0.96517126    -0.07800
C209        C  0.16746797  0.47766664  0.96807126    -0.14200
C210        C  0.14189299  0.44695930  0.97434158    -0.14000
C211        C  0.11198928  0.41054700  0.98544565     0.24800
C212        C  0.11848768  0.38683063  0.01370177    -0.19400
C213        C  0.08924091  0.35232250  0.02767297    -0.07800
C214        C  0.05299906  0.34098497  0.01348941    -0.03900
C215        C  0.04692259  0.36461661  0.98376201    -0.09200
C216        C  0.07617128  0.39922132  0.97009561    -0.16900
H217        H  0.22083242  0.60206779  0.95694689     0.11300
H218        H  0.16714841  0.53967377  0.95885584     0.10600
H219        H  0.23811030  0.49741234  0.96927687     0.10500
H220        H  0.29192833  0.55939815  0.96738597     0.11000
H221        H  0.14611407  0.39520171  0.02561320     0.11100
H222        H  0.09502074  0.33451374  0.04953656     0.11100
H223        H  0.01957446  0.35691670  0.97230523     0.11200
H224        H  0.07076018  0.41733899  0.94829441     0.10000
C225        C  0.28723281  0.92861971  0.00506508    -0.03800
C226        C  0.27110593  0.89940502  0.04128281    -0.09500
C227        C  0.27459875  0.86915743  0.03289133    -0.17200
C228        C  0.29415181  0.86736716  0.98839921     0.24900
C229        C  0.30995987  0.89585790  0.95185381    -0.18900
C230        C  0.30645573  0.92609047  0.96001226    -0.07800
C231        C  0.29842028  0.83653934  0.98087927    -0.14200
C232        C  0.30214549  0.81074393  0.97609117    -0.14000
C233        C  0.30657940  0.77987197  0.97205761     0.24800
C234        C  0.34168366  0.78512871  0.97303633    -0.19400
C235        C  0.34596538  0.75512546  0.97048613    -0.07800
C236        C  0.31511623  0.71933230  0.96697856    -0.03900
C237        C  0.27994052  0.71439188  0.96572914    -0.09200
C238        C  0.27575181  0.74444666  0.96825521    -0.16900
H239        H  0.25563533  0.89914586  0.07613817     0.11300
H240        H  0.26212238  0.84715934  0.06137624     0.10600
H241        H  0.32513101  0.89480034  0.91714628     0.10500
H242        H  0.31896124  0.94779847  0.93108252     0.11000
H243        H  0.36575895  0.81242101  0.97608946     0.11100
H244        H  0.37344360  0.76001440  0.97158512     0.11100
H245        H  0.25558376  0.68730383  0.96303562     0.11200
H246        H  0.24843352  0.74002710  0.96756433     0.10000
C247        C  0.64026988  0.71146323  0.00757686    -0.03800
C248        C  0.61910831  0.69075867  0.96230181    -0.09500
C249        C  0.58382358  0.68397596  0.95420366    -0.17200
C250        C  0.56895322  0.69791594  0.99102222     0.24900
C251        C  0.58966112  0.71884798  0.03580394    -0.18900
C252        C  0.62497556  0.72562946  0.04413167    -0.07800
C253        C  0.53247168  0.69077400  0.98302033    -0.14200
C254        C  0.50201771  0.68527122  0.97745681    -0.14000
C255        C  0.46588477  0.67957093  0.97248009     0.24800
C256        C  0.46173786  0.70950424  0.96849146    -0.19400
C257        C  0.42670374  0.70425433  0.96563150    -0.07800
C258        C  0.39520928  0.66888701  0.96668787    -0.03900
C259        C  0.39970327  0.63890864  0.97002874    -0.09200
C260        C  0.43478793  0.64425433  0.97297561    -0.16900
H261        H  0.62998426  0.67962490  0.93315978     0.11300
H262        H  0.56814438  0.66780997  0.91924862     0.10600
H263        H  0.57846076  0.72993408  0.06447064     0.10500
H264        H  0.63967577  0.74200793  0.07918295     0.11000
H265        H  0.48560502  0.73697151  0.96808422     0.11100
H266        H  0.42433904  0.72794215  0.96292568     0.11100
H267        H  0.37613387  0.61130615  0.97092893     0.11200
H268        H  0.43763561  0.62086094  0.97611159     0.10000
C269        C  0.35534957  0.06585549  0.01683389    -0.03800
C270        C  0.35855203  0.09426814  0.98599258    -0.09500
C271        C  0.39180798  0.12799320  0.98443682    -0.17200
C272        C  0.42209131  0.13375350  0.01413265     0.24900
C273        C  0.41876101  0.10585287  0.04595433    -0.18900
C274        C  0.38570942  0.07217801  0.04727744    -0.07800
C275        C  0.45702331  0.16766491  0.01113467    -0.14200
C276        C  0.48752513  0.19457349  0.01003276    -0.14000
C277        C  0.52500749  0.22501458  0.01018350     0.24800
C278        C  0.55365658  0.21883876  0.00160637    -0.19400
C279        C  0.59014924  0.24797800  0.00322293    -0.07800
C280        C  0.59862987  0.28389525  0.01342825    -0.03900
C281        C  0.56959516  0.28986713  0.02169236    -0.09200
C282        C  0.53307292  0.26061612  0.02014449    -0.16900
H283        H  0.33585583  0.09006489  0.96169299     0.11300
H284        H  0.39405262  0.14932454  0.95948848     0.10600
H285        H  0.44191400  0.10995821  0.06923505     0.10500
H286        H  0.38393950  0.05096248  0.07195307     0.11000
H287        H  0.54779524  0.19141048  0.99397209     0.11100
H288        H  0.61168784  0.24229243  0.99654405     0.11100
H289        H  0.57504696  0.31709755  0.02967356     0.11200
H290        H  0.51115942  0.26575660  0.02701250     0.10000
C291        C  0.68972983  0.41631323  0.02747051    -0.03800
C292        C  0.66133739  0.42356783  0.02724015    -0.09500
C293        C  0.66935702  0.45947122  0.02760361    -0.17200
C294        C  0.70581419  0.48876354  0.02842784     0.24900
C295        C  0.73429439  0.48193802  0.03003172    -0.18900
C296        C  0.72634540  0.44598293  0.02959483    -0.07800
C297        C  0.71359960  0.52558907  0.02611924    -0.14200
C298        C  0.71728903  0.55524932  0.02299664    -0.14000
C299        C  0.71788809  0.58885723  0.01863627     0.24800
C300        C  0.74328847  0.62030446  0.04799114    -0.19400
C301        C  0.74180752  0.65197464  0.04638422    -0.07800
C302        C  0.71464880  0.65243086  0.01590000    -0.03900
C303        C  0.69002714  0.62103249  0.98521729    -0.09200
C304        C  0.69164762  0.58955554  0.98662702    -0.16900
H305        H  0.63286325  0.40152201  0.02573543     0.11300
H306        H  0.64705871  0.46437516  0.02645587     0.10600
H307        H  0.76263276  0.50436340  0.03083052     0.10500
H308        H  0.74890103  0.44147141  0.03007212     0.11000
H309        H  0.76374177  0.62012871  0.07295612     0.11100
H310        H  0.76106930  0.67554397  0.07041911     0.11100
H311        H  0.66928849  0.62069411  0.96030955     0.11200
H312        H  0.67195281  0.56550831  0.96347641     0.10000
C313        C  0.73096199  0.32915112  0.00596601    -0.03800
C314        C  0.72323284  0.29402358  0.99108611    -0.09500
C315        C  0.75154452  0.28708425  0.98563175    -0.17200
C316        C  0.78796696  0.31505922  0.99505734     0.24900
C317        C  0.79597923  0.35010665  0.00965323    -0.18900
C318        C  0.76773209  0.35716372  0.01494131    -0.07800
C319        C  0.81690160  0.30744710  0.99198602    -0.14200
C320        C  0.84078298  0.30058381  0.99263244    -0.14000
C321        C  0.86863324  0.29175836  0.99821893     0.24800
C322        C  0.90377206  0.31427761  0.97669995    -0.19400
C323        C  0.93140600  0.30696535  0.98599335    -0.07800
C324        C  0.92440221  0.27733250  0.01755754    -0.03900
C325        C  0.88855494  0.25410891  0.03719478    -0.09200
C326        C  0.86098530  0.26133995  0.02770133    -0.16900
H327        H  0.69530661  0.27184258  0.98364644     0.11300
H328        H  0.74497771  0.25980607  0.97453794     0.10600
H329        H  0.82404567  0.37193050  0.01739350     0.10500
H330        H  0.77469431  0.38447362  0.02656906     0.11000
H331        H  0.91002335  0.33789014  0.95368314     0.11100
H332        H  0.95835722  0.32520133  0.96985844     0.11100
H333        H  0.88175971  0.23038520  0.06025856     0.11200
H334        H  0.83383122  0.24353380  0.04424102     0.10000
loop_ 
_geom_bond_atom_site_label_1 
_geom_bond_atom_site_label_2 
_geom_bond_distance 
_geom_bond_site_symmetry_2 
_ccdc_geom_bond_type 
C1            N2   1.359       .  A
C1            N6   1.360       .  A
C1          C313   1.485       .  S
N2            C3   1.359       .  A
C3            N4   1.360       .  A
C3          C280   1.487       .  S
N4            C5   1.361       .  A
C5            N6   1.360       .  A
C5          C291   1.487       .  S
C7            N8   1.361       .  A
C7           N12   1.360       .  A
C7          C236   1.486       .  S
N8            C9   1.360       .  A
C9           N10   1.359       .  A
C9          C203   1.486       .  S
N10          C11   1.358       .  A
C11          N12   1.360       .  A
C11         C258   1.486       .  S
C13          C14   1.544       .  S
C13          C19   1.533       .  S
C13          C17   1.534   1_554  S
C13         C247   1.530       .  S
C14          H21   1.081       .  S
C14          C15   1.371       .  D
C15          C16   1.544       .  S
C15         C181   1.493       .  S
C16          C20   1.545       .  S
C16          C18   1.542   1_554  S
C16          H22   1.109       .  S
C17          H23   1.086       .  S
C17          C18   1.366       .  D
C18         C159   1.486       .  S
C19          H24   1.086       .  S
C19          C20   1.366       .  D
C20         C302   1.490       .  S
C25          C26   1.537   1_655  S
C25          C31   1.529       .  S
C25          C29   1.540       .  S
C25         C137   1.528       .  S
C26          H33   1.086       .  S
C26          C27   1.369       .  D
C27          C28   1.545   1_454  S
C27         C214   1.490       .  S
C28          C32   1.541       .  S
C28          C30   1.545   1_556  S
C28          H34   1.109       .  S
C29          H35   1.081       .  S
C29          C30   1.370       .  D
C30         C324   1.492       .  S
C31          H36   1.086       .  S
C31          C32   1.363   1_554  D
C32         C115   1.484       .  S
C37          C38   1.542       .  S
C37          C43   1.533       .  S
C37          C41   1.532   1_554  S
C37         C225   1.531       .  S
C38          H45   1.080       .  S
C38          C39   1.370       .  D
C39          C40   1.546   1_565  S
C39          C82   1.493   1_565  S
C40          C44   1.544       .  S
C40          C42   1.547   1_544  S
C40          H46   1.108       .  S
C41          H47   1.085       .  S
C41          C42   1.368       .  D
C42          C93   1.495   1_565  S
C43          H48   1.086       .  S
C43          C44   1.366   1_565  D
C44         C269   1.487       .  S
O49         Cr67   2.008       .  S
O49          C57   1.266       .  A
O50         Cr67   1.975   1_545  S
O50          C51   1.261       .  A
C51         C126   1.482       .  S
C51          O52   1.268   1_655  A
O52         Cr68   2.013       .  S
O53         Cr68   1.980       .  S
O53          C54   1.262       .  A
C54         C104   1.484       .  S
C54          O55   1.268   1_545  A
O55         Cr69   2.011       .  S
O56         Cr69   1.982   1_655  S
O56          C57   1.261       .  A
C57         C170   1.485       .  S
O58         Cr67   1.971       .  S
O58          C66   1.260       .  A
O59         Cr67   2.006   1_545  S
O59          C60   1.266   1_655  A
C60         C148   1.481       .  S
C60          O61   1.261       .  A
O61         Cr68   1.981       .  S
O62         Cr68   2.013       .  S
O62          C63   1.267       .  A
C63          C71   1.486       .  S
C63          O64   1.261   1_545  A
O64         Cr69   1.979       .  S
O65         Cr69   2.017   1_655  S
O65          C66   1.268       .  A
C66         C192   1.484       .  S
Cr67         O70   1.770   1_665  S
Cr68         O70   1.771       .  S
Cr69         O70   1.772   1_565  S
C71          C72   1.408   1_545  A
C71          C76   1.409       .  A
C72          C73   1.400       .  A
C72          H85   1.083       .  S
C73          C74   1.401   1_565  A
C73          H86   1.083       .  S
C74          C75   1.400       .  A
C74          C77   1.445       .  S
C75          C76   1.401       .  A
C75          H87   1.083       .  S
C76          H88   1.083       .  S
C77          C78   1.209       .  T
C78          C79   1.445       .  S
C79          C80   1.399   1_545  A
C79          C84   1.402       .  A
C80          C81   1.398       .  A
C80          H89   1.084       .  S
C81          C82   1.409   1_565  A
C81          H90   1.082       .  S
C82          C83   1.407       .  A
C83          C84   1.403       .  A
C83          H91   1.082       .  S
C84          H92   1.083       .  S
C93          C94   1.410   1_545  A
C93          C98   1.408       .  A
C94          C95   1.396       .  A
C94         H107   1.081       .  S
C95          C96   1.397   1_565  A
C95         H108   1.084       .  S
C96          C97   1.401       .  A
C96          C99   1.442       .  S
C97          C98   1.403       .  A
C97         H109   1.083       .  S
C98         H110   1.079       .  S
C99         C100   1.207       .  T
C100        C101   1.442       .  S
C101        C102   1.400       .  A
C101        C106   1.399   1_545  A
C102        C103   1.401       .  A
C102        H111   1.083       .  S
C103        C104   1.408       .  A
C103        H112   1.083       .  S
C104        C105   1.408   1_545  A
C105        C106   1.398       .  A
C105        H113   1.083       .  S
C106        H114   1.084       .  S
C115        C116   1.407   1_655  A
C115        C120   1.406       .  A
C116        C117   1.393       .  A
C116        H129   1.083       .  S
C117        C118   1.397   1_455  A
C117        H130   1.084       .  S
C118        C119   1.402       .  A
C118        C121   1.439       .  S
C119        C120   1.403       .  A
C119        H131   1.083       .  S
C120        H132   1.083       .  S
C121        C122   1.206       .  T
C122        C123   1.440       .  S
C123        C124   1.399   1_655  A
C123        C128   1.400       .  A
C124        C125   1.398       .  A
C124        H133   1.084       .  S
C125        C126   1.408   1_455  A
C125        H134   1.083       .  S
C126        C127   1.408       .  A
C127        C128   1.399       .  A
C127        H135   1.083       .  S
C128        H136   1.083       .  S
C137        C138   1.410   1_655  A
C137        C142   1.413       .  A
C138        C139   1.396       .  A
C138        H151   1.083       .  S
C139        C140   1.397   1_455  A
C139        H152   1.084       .  S
C140        C141   1.399       .  A
C140        C143   1.440       .  S
C141        C142   1.400       .  A
C141        H153   1.084       .  S
C142        H154   1.077       .  S
C143        C144   1.206       .  T
C144        C145   1.440       .  S
C145        C146   1.399       .  A
C145        C150   1.401   1_655  A
C146        C147   1.398       .  A
C146        H155   1.084       .  S
C147        C148   1.408   1_655  A
C147        H156   1.083       .  S
C148        C149   1.407       .  A
C149        C150   1.400       .  A
C149        H157   1.083       .  S
C150        H158   1.083       .  S
C159        C160   1.406       .  A
C159        C164   1.407       .  A
C160        C161   1.402       .  A
C160        H173   1.083       .  S
C161        C162   1.402       .  A
C161        H174   1.083       .  S
C162        C163   1.399       .  A
C162        C165   1.443       .  S
C163        C164   1.397       .  A
C163        H175   1.084       .  S
C164        H176   1.083       .  S
C165        C166   1.208       .  T
C166        C167   1.443       .  S
C167        C168   1.400       .  A
C167        C172   1.401       .  A
C168        C169   1.398       .  A
C168        H177   1.084       .  S
C169        C170   1.408       .  A
C169        H178   1.083       .  S
C170        C171   1.408       .  A
C171        C172   1.401       .  A
C171        H179   1.083       .  S
C172        H180   1.083       .  S
C181        C182   1.409       .  A
C181        C186   1.407       .  A
C182        C183   1.399       .  A
C182        H195   1.082       .  S
C183        C184   1.399       .  A
C183        H196   1.084       .  S
C184        C185   1.400       .  A
C184        C187   1.444       .  S
C185        C186   1.401       .  A
C185        H197   1.083       .  S
C186        H198   1.079       .  S
C187        C188   1.208       .  T
C188        C189   1.444       .  S
C189        C190   1.402       .  A
C189        C194   1.399       .  A
C190        C191   1.403       .  A
C190        H199   1.083       .  S
C191        C192   1.408       .  A
C191        H200   1.083       .  S
C192        C193   1.408       .  A
C193        C194   1.397       .  A
C193        H201   1.083       .  S
C194        H202   1.084       .  S
C203        C204   1.409       .  A
C203        C208   1.408       .  A
C204        C205   1.401       .  A
C204        H217   1.083       .  S
C205        C206   1.400       .  A
C205        H218   1.083       .  S
C206        C207   1.399       .  A
C206        C209   1.442       .  S
C207        C208   1.398       .  A
C207        H219   1.084       .  S
C208        H220   1.083       .  S
C209        C210   1.207       .  T
C210        C211   1.442       .  S
C211        C212   1.400   1_556  A
C211        C216   1.399       .  A
C212        C213   1.399       .  A
C212        H221   1.084       .  S
C213        C214   1.408       .  A
C213        H222   1.083       .  S
C214        C215   1.405   1_554  A
C215        C216   1.400       .  A
C215        H223   1.077       .  S
C216        H224   1.083       .  S
C225        C226   1.413       .  A
C225        C230   1.411   1_554  A
C226        C227   1.399       .  A
C226        H239   1.076       .  S
C227        C228   1.398   1_554  A
C227        H240   1.084       .  S
C228        C229   1.398       .  A
C228        C231   1.442       .  S
C229        C230   1.398       .  A
C229        H241   1.083       .  S
C230        H242   1.083       .  S
C231        C232   1.207       .  T
C232        C233   1.442       .  S
C233        C234   1.400       .  A
C233        C238   1.399       .  A
C234        C235   1.399       .  A
C234        H243   1.084       .  S
C235        C236   1.409       .  A
C235        H244   1.083       .  S
C236        C237   1.408       .  A
C237        C238   1.399       .  A
C237        H245   1.083       .  S
C238        H246   1.083       .  S
C247        C248   1.412   1_554  A
C247        C252   1.412       .  A
C248        C249   1.398       .  A
C248        H261   1.083       .  S
C249        C250   1.397       .  A
C249        H262   1.083       .  S
C250        C251   1.399   1_556  A
C250        C253   1.442       .  S
C251        C252   1.400       .  A
C251        H263   1.084       .  S
C252        H264   1.077       .  S
C253        C254   1.207       .  T
C254        C255   1.442       .  S
C255        C256   1.399       .  A
C255        C260   1.400       .  A
C256        C257   1.399       .  A
C256        H265   1.083       .  S
C257        C258   1.408       .  A
C257        H266   1.083       .  S
C258        C259   1.409       .  A
C259        C260   1.399       .  A
C259        H267   1.083       .  S
C260        H268   1.083       .  S
C269        C270   1.405   1_554  A
C269        C274   1.407       .  A
C270        C271   1.402       .  A
C270        H283   1.080       .  S
C271        C272   1.402   1_556  A
C271        H284   1.083       .  S
C272        C273   1.399       .  A
C272        C275   1.443       .  S
C273        C274   1.397       .  A
C273        H285   1.084       .  S
C274        H286   1.083       .  S
C275        C276   1.208       .  T
C276        C277   1.443       .  S
C277        C278   1.400       .  A
C277        C282   1.400       .  A
C278        C279   1.399       .  A
C278        H287   1.084   1_554  S
C279        C280   1.408       .  A
C279        H288   1.083   1_554  S
C280        C281   1.409       .  A
C281        C282   1.401       .  A
C281        H289   1.083       .  S
C282        H290   1.083       .  S
C291        C292   1.408       .  A
C291        C296   1.410       .  A
C292        C293   1.398       .  A
C292        H305   1.083       .  S
C293        C294   1.400       .  A
C293        H306   1.084       .  S
C294        C295   1.400       .  A
C294        C297   1.444       .  S
C295        C296   1.401       .  A
C295        H307   1.083       .  S
C296        H308   1.083       .  S
C297        C298   1.208       .  T
C298        C299   1.444       .  S
C299        C300   1.401       .  A
C299        C304   1.399   1_554  A
C300        C301   1.402       .  A
C300        H309   1.083       .  S
C301        C302   1.406       .  A
C301        H310   1.079       .  S
C302        C303   1.408   1_554  A
C303        C304   1.397       .  A
C303        H311   1.083       .  S
C304        H312   1.084       .  S
C313        C314   1.409   1_554  A
C313        C318   1.408       .  A
C314        C315   1.399       .  A
C314        H327   1.083       .  S
C315        C316   1.399       .  A
C315        H328   1.084       .  S
C316        C317   1.400   1_556  A
C316        C319   1.442       .  S
C317        C318   1.399       .  A
C317        H329   1.083       .  S
C318        H330   1.083       .  S
C319        C320   1.207       .  T
C320        C321   1.441       .  S
C321        C322   1.400       .  A
C321        C326   1.398   1_556  A
C322        C323   1.401       .  A
C322        H331   1.083       .  S
C323        C324   1.407   1_556  A
C323        H332   1.077       .  S
C324        C325   1.409       .  A
C325        C326   1.397       .  A
C325        H333   1.082       .  S
C326        H334   1.084       .  S
