geometry optimzed in LAMMPS
_audit_creation_date              2020-11-30 
_audit_creation_method            'lammps2cif' 
_symmetry_space_group_name_H-M    'P1' 
_symmetry_Int_Tables_number       1 
_symmetry_cell_setting            triclinic 
loop_ 
_symmetry_equiv_pos_as_xyz 
  x,y,z 
_cell_length_a                    35.44878628 
_cell_length_b                    35.44846537673387 
_cell_length_c                    26.41667900452252 
_cell_angle_alpha                 90.00064750873253 
_cell_angle_beta                  89.99894937302328 
_cell_angle_gamma                 119.93648823773832 
loop_ 
_atom_site_label 
_atom_site_type_symbol 
_atom_site_fract_x 
_atom_site_fract_y 
_atom_site_fract_z 
_atom_site_charge 
C1          C  0.33372510  0.66619208  0.19994613     0.49000
H2          H  0.33371819  0.66619358  0.15786039     0.00000
C3          C  0.33374050  0.66618745  0.29864443     0.49000
H4          H  0.33374762  0.66618453  0.34073070     0.00000
C5          C  0.35681079  0.64310468  0.22327420    -0.13700
C6          C  0.35677422  0.71231583  0.22329544    -0.13500
C7          C  0.28760439  0.64314804  0.22330420    -0.13900
C8          C  0.35681798  0.64310087  0.27528251    -0.13800
C9          C  0.35677806  0.71231348  0.27530321    -0.13400
C10         C  0.28761270  0.64314879  0.27531210    -0.13700
C11         C  0.15793068  0.38255389  0.77586029     0.05800
C12         C  0.15791984  0.38257132  0.72261295     0.05800
C13         C  0.19157634  0.38149459  0.69628771    -0.14700
C14         C  0.22626929  0.38245371  0.72256648     0.05800
C15         C  0.22628740  0.38245155  0.77581055     0.05800
C16         C  0.19160562  0.38147482  0.80213682    -0.14700
H17         H  0.19240089  0.38303169  0.84317009     0.07800
H18         H  0.19234879  0.38306641  0.65525362     0.07800
C19         C  0.15808742  0.77351892  0.77616271     0.05800
C20         C  0.15804480  0.77355206  0.72291584     0.05800
C21         C  0.19168113  0.80825932  0.69660879    -0.14700
C22         C  0.22637405  0.84192183  0.72290342     0.05800
C23         C  0.22641989  0.84188694  0.77615011     0.05800
C24         C  0.19176989  0.80819106  0.80246287    -0.14700
H25         H  0.19257787  0.80739217  0.84348542     0.07800
H26         H  0.19242257  0.80751137  0.65557899     0.07800
C27         C  0.77573888  0.61879501  0.27583367     0.05800
C28         C  0.77574465  0.61877013  0.22258810     0.05800
C29         C  0.81040957  0.61966827  0.19629930    -0.14700
C30         C  0.84416676  0.61878420  0.22263230     0.05800
C31         C  0.84416527  0.61881925  0.27587967     0.05800
C32         C  0.81040118  0.61972796  0.30216569    -0.14700
H33         H  0.80963826  0.61823027  0.34321238     0.07800
H34         H  0.80965476  0.61812599  0.15525485     0.07800
O35         O  0.07097231  0.48842580  0.93146124    -0.75000
C36         C  0.04743798  0.59654082  0.91696942     0.86100
O37         O  0.06839560  0.53341145  0.10282530    -0.76100
O38         O  0.94915014  0.55158125  0.03535177    -0.77600
O39         O  0.91265191  0.42406646  0.93233212    -0.77400
O40         O  0.00785454  0.42558113  0.92989863    -0.76000
Zn41       Zn  0.06120618  0.52969620  0.97476057     1.55700
O42         O  0.91259803  0.48684254  0.93226881    -0.77400
Cd43       Cd  0.96804134  0.43816355  0.97482948     1.59700
Cd44       Cd  0.00466434  0.50153757  0.07546191     1.59600
O45         O  0.94929157  0.39603725  0.03548831    -0.77400
O46         O  0.00130026  0.49980106  0.99962325    -1.87900
Cd47       Cd  0.96796412  0.52814036  0.97475229     1.59900
O48         O  0.97411815  0.43891280  0.10384875    -0.77300
O49         O  0.00776386  0.58044168  0.92977503    -0.76000
C50         C  0.10483274  0.55159127  0.07983714     0.86500
C51         C  0.04751996  0.44909241  0.91707475     0.86200
O52         O  0.07090977  0.58064790  0.93139201    -0.74900
C53         C  0.89582419  0.44705135  0.91920453     0.87000
O54         O  0.10696515  0.55260011  0.03160770    -0.75000
C55         C  0.95434282  0.40150438  0.08314916     0.87100
C56         C  0.95421373  0.55122947  0.08302016     0.87500
O57         O  0.97403400  0.53362606  0.10376918    -0.75900
O58         O  0.07095437  0.58088465  0.56737750    -0.75000
C59         C  0.04757943  0.44932888  0.58161953     0.86100
O60         O  0.06845155  0.53361173  0.39589938    -0.76100
O61         O  0.94932912  0.39627971  0.46323623    -0.77600
O62         O  0.91263394  0.48707185  0.56642386    -0.77400
O63         O  0.00780005  0.58066242  0.56899915    -0.76000
Zn64       Zn  0.06126526  0.52995071  0.52396943     1.55700
O65         O  0.91272165  0.42431267  0.56638296    -0.77400
Cd66       Cd  0.96801874  0.52838863  0.52397251     1.59700
Cd67       Cd  0.00471793  0.50177180  0.42325986     1.59600
O68         O  0.94922862  0.55185219  0.46337070    -0.77400
O69         O  0.00135980  0.50005192  0.49909955    -1.87900
Cd70       Cd  0.96810407  0.43841375  0.52388505     1.59900
O71         O  0.97410924  0.53388361  0.39495801    -0.77300
O72         O  0.00791461  0.42582144  0.56879558    -0.76000
C73         C  0.10489037  0.55180564  0.41888374     0.86500
C74         C  0.04746987  0.59675836  0.58182172     0.86200
O75         O  0.07103131  0.48866722  0.56724881    -0.74900
C76         C  0.89587416  0.44728288  0.57949281     0.87000
O77         O  0.10702561  0.55285056  0.46711416    -0.75000
C78         C  0.95429395  0.55149534  0.41570221     0.87100
C79         C  0.95435896  0.40173594  0.41557330     0.87500
O80         O  0.97413737  0.43914159  0.39486627    -0.77500
C81         C  0.84394037  0.22430053  0.22286336     0.05800
C82         C  0.84389009  0.22434851  0.27610747     0.05800
C83         C  0.81013461  0.18975742  0.30242129    -0.14700
C84         C  0.77555428  0.15599599  0.27610167     0.05800
C85         C  0.77560799  0.15594915  0.22285782     0.05800
C86         C  0.81023836  0.18966347  0.19654980    -0.14700
H87         H  0.80952557  0.19037956  0.15549897     0.07800
H88         H  0.80934368  0.19054358  0.34346405     0.07800
C89         C  0.38091087  0.15562560  0.27577698     0.05800
C90         C  0.38097848  0.15564335  0.22252966     0.05800
C91         C  0.38010993  0.18941065  0.19620030    -0.14700
C92         C  0.38099863  0.22406945  0.22249394     0.05800
C93         C  0.38093956  0.22405412  0.27573979     0.05800
C94         C  0.37998370  0.18937849  0.30206567    -0.14700
H95         H  0.38146021  0.19012767  0.34311545     0.07800
H96         H  0.38168078  0.19018252  0.15515580     0.07800
C97         C  0.61728442  0.84195145  0.77574625     0.05800
C98         C  0.61722720  0.84193703  0.72249784     0.05800
C99         C  0.61825041  0.80824998  0.69618112    -0.14700
C100        C  0.61728219  0.77355553  0.72246487     0.05800
C101        C  0.61732840  0.77356515  0.77571026     0.05800
C102        C  0.61835390  0.80827365  0.80202480    -0.14700
H103        H  0.61682979  0.80750004  0.84307321     0.07800
H104        H  0.61664847  0.80745928  0.65513672     0.07800
O105        O  0.51118692  0.92890662  0.56718146    -0.75000
C106        C  0.40312762  0.95251674  0.58177286     0.86100
O107        O  0.46627581  0.93149879  0.39584495    -0.76100
O108        O  0.44802778  0.05072601  0.46329894    -0.77600
O109        O  0.57557189  0.08721767  0.56633945    -0.77400
O110        O  0.57404330  0.99201249  0.56872563    -0.76000
Zn111      Zn  0.46991088  0.93869007  0.52391302     1.55700
O112        O  0.51283110  0.08734127  0.56634833    -0.77400
Cd113      Cd  0.56146095  0.03183764  0.52383050     1.59700
Cd114      Cd  0.49810846  0.99523245  0.42320302     1.59600
O115        O  0.60359579  0.05060764  0.46318484    -0.77400
O116        O  0.49982459  0.99859527  0.49904166    -1.87900
Cd117      Cd  0.47150306  0.03195331  0.52390571     1.59900
O118        O  0.56073777  0.02580905  0.39481190    -0.77300
O119        O  0.41923341  0.99218707  0.56894561    -0.76000
C120        C  0.44806630  0.89506065  0.41883130     0.86500
C121        C  0.55052813  0.95234733  0.58154515     0.86200
O122        O  0.41898726  0.92902006  0.56732738    -0.74900
C123        C  0.55261375  0.10408208  0.57943555     0.87000
O124        O  0.44700318  0.89292724  0.46706163    -0.75000
C125        C  0.59814173  0.04557819  0.41552200     0.87100
C126        C  0.44837291  0.04564241  0.41563268     0.87500
O127        O  0.46598657  0.02582672  0.39489461    -0.77500
O128        O  0.41905790  0.48848052  0.56727115    -0.75000
C129        C  0.55055379  0.59650861  0.58165263     0.86100
O130        O  0.46642263  0.53334985  0.39586315    -0.76100
O131        O  0.60379505  0.55153286  0.46321100    -0.77600
O132        O  0.51304736  0.42399226  0.56622399    -0.77400
O133        O  0.41943735  0.42562634  0.56884832    -0.76000
Zn134      Zn  0.46999795  0.52971938  0.52392266     1.55700
O135        O  0.57577289  0.48675382  0.56625181    -0.77400
Cd136      Cd  0.47171339  0.43812035  0.52381687     1.59700
Cd137      Cd  0.49830727  0.50144712  0.42320008     1.59600
O138        O  0.44823727  0.39595206  0.46319588    -0.77400
O139        O  0.49999047  0.49975578  0.49902748    -1.87900
Cd140      Cd  0.56162329  0.52806202  0.52382608     1.59900
O141        O  0.46623938  0.43881917  0.39482995    -0.77300
O142        O  0.57409709  0.58034705  0.56882934    -0.76000
C143        C  0.44817373  0.55157243  0.41884881     0.86500
C144        C  0.40325728  0.44915193  0.58167852     0.86200
O145        O  0.51121996  0.58067872  0.56725519    -0.74900
C146        C  0.55282451  0.44696648  0.57931944     0.87000
O147        O  0.44708600  0.55262287  0.46707928    -0.75000
C148        C  0.44860173  0.40141161  0.41553656     0.87100
C149        C  0.59834175  0.55115518  0.41554979     0.87500
O150        O  0.56093727  0.53350745  0.39483606    -0.77500
O151        O  0.41929116  0.92902230  0.93134387    -0.75000
C152        C  0.55083949  0.95238920  0.91703832     0.86100
O153        O  0.46650922  0.93151200  0.10278645    -0.76100
O154        O  0.60389488  0.05059491  0.03547312    -0.77600
O155        O  0.51312132  0.08733423  0.93226401    -0.77400
O156        O  0.41952135  0.99218081  0.92972842    -0.76000
Zn157      Zn  0.47023429  0.93870826  0.97472114     1.55700
O158        O  0.57588881  0.08726394  0.93232190    -0.77400
Cd159      Cd  0.47181036  0.03196189  0.97472567     1.59700
Cd160      Cd  0.49838889  0.99524537  0.07543106     1.59600
O161        O  0.44835054  0.05076195  0.03531818    -0.77400
O162        O  0.50013613  0.99861261  0.99959303    -1.87900
Cd163      Cd  0.56177692  0.03186428  0.97480886     1.59900
O164        O  0.46629324  0.02587028  0.10373777    -0.77300
O165        O  0.57435440  0.99205196  0.92987076    -0.76000
C166        C  0.44832604  0.89507524  0.07979751     0.86500
C167        C  0.40341296  0.95250674  0.91691830     0.86200
O168        O  0.51150459  0.92893884  0.93142113    -0.74900
C169        C  0.55291158  0.10410187  0.91920103     0.87000
O170        O  0.44731846  0.89294400  0.03156752    -0.75000
C171        C  0.44868999  0.04568967  0.08298592     0.87100
C172        C  0.59842086  0.04554526  0.08313342     0.87500
O173        O  0.56100967  0.02578220  0.10382753    -0.77500
O174        O  0.51125814  0.58080662  0.93109829    -0.75000
C175        C  0.40330445  0.44929409  0.91666917     0.86100
O176        O  0.46643464  0.53344815  0.10251969    -0.76100
O177        O  0.44824897  0.39606883  0.03515672    -0.77600
O178        O  0.57581188  0.48687430  0.93216960    -0.77400
O179        O  0.57412476  0.58045344  0.92951747    -0.76000
Zn180      Zn  0.47003149  0.52985672  0.97445335     1.55700
O181        O  0.51307867  0.42412090  0.93217726    -0.77400
Cd182      Cd  0.56165470  0.52819272  0.97455951     1.59700
Cd183      Cd  0.49833082  0.50155595  0.07518035     1.59600
O184        O  0.60382603  0.55167555  0.03517321    -0.77400
O185        O  0.50001879  0.49988630  0.99935155    -1.87900
Cd186      Cd  0.47173974  0.43825369  0.97455490     1.59900
O187        O  0.56096399  0.53361424  0.10354864    -0.77300
O188        O  0.41948580  0.42577048  0.92949903    -0.76000
C189        C  0.44819322  0.55168322  0.07954460     0.86500
C190        C  0.55058617  0.59661674  0.91668282     0.86200
O191        O  0.41909334  0.48861794  0.93109232    -0.74900
C192        C  0.55286154  0.44708711  0.91910416     0.87000
O193        O  0.44711793  0.55275575  0.03131308    -0.75000
C194        C  0.59837077  0.55127582  0.08283619     0.87100
C195        C  0.44862514  0.40151394  0.08281935     0.87500
O196        O  0.46626865  0.43891716  0.10353937    -0.77500
C197        C  0.66725297  0.33267298  0.69993354     0.49000
H198        H  0.66725296  0.33267274  0.65785001     0.00000
C199        C  0.66724958  0.33267771  0.79865920     0.49000
H200        H  0.66724544  0.33268193  0.84074330     0.00000
C201        C  0.64417074  0.35574897  0.72329488    -0.13700
C202        C  0.64420743  0.28655771  0.72330632    -0.13500
C203        C  0.71336831  0.35572220  0.72330699    -0.13900
C204        C  0.64417017  0.35575323  0.77528119    -0.13800
C205        C  0.64421137  0.28656033  0.77529441    -0.13400
C206        C  0.71336619  0.35572045  0.77529479    -0.13700
C207        C  0.57248002  0.42747906  0.88836303    -0.15000
C208        C  0.58883324  0.41112017  0.86241339     0.09100
C209        C  0.60803671  0.39190266  0.83192834     0.10900
C210        C  0.62441327  0.37551521  0.80608905    -0.15800
C211        C  0.57251186  0.14327739  0.88841861    -0.15000
C212        C  0.58886262  0.17595535  0.86245412     0.09100
C213        C  0.60807139  0.21434405  0.83196098     0.10900
C214        C  0.62445259  0.24707865  0.80611591    -0.15800
C215        C  0.57243944  0.42737131  0.61009337    -0.15000
C216        C  0.58879879  0.41103636  0.63607553     0.09100
C217        C  0.60801534  0.39185306  0.66660068     0.10900
C218        C  0.62440330  0.37549248  0.69246864    -0.15800
C219        C  0.62439682  0.24707250  0.69249247    -0.15000
C220        C  0.60794424  0.21433338  0.66665621     0.09100
C221        C  0.58864570  0.17593964  0.63617328     0.10900
C222        C  0.57223623  0.14325859  0.61021500    -0.15800
C223        C  0.61031300  0.73597171  0.69413405    -0.15000
C224        C  0.60013302  0.70384529  0.66940189     0.09100
C225        C  0.58442640  0.66615894  0.63953897     0.10900
C226        C  0.56921097  0.63416930  0.61337703    -0.15800
C227        C  0.56920920  0.93331975  0.61325559    -0.15000
C228        C  0.58439752  0.91651370  0.63945984     0.09100
C229        C  0.60005935  0.89450628  0.66940407     0.10900
C230        C  0.61022663  0.87255387  0.69418502    -0.15800
C231        C  0.61037837  0.73598293  0.80402860    -0.15000
C232        C  0.60019314  0.70386817  0.82878515     0.09100
C233        C  0.58446915  0.66621011  0.85870171     0.10900
C234        C  0.56924211  0.63424974  0.88491331    -0.15800
C235        C  0.61035574  0.87258935  0.80411750    -0.15000
C236        C  0.60025190  0.89455634  0.82896880     0.09100
C237        C  0.58465591  0.91657337  0.85900372     0.10900
C238        C  0.56950602  0.93337760  0.88527540    -0.15800
C239        C  0.42858210  0.36382729  0.11446008    -0.15000
C240        C  0.41297147  0.33166115  0.14034129     0.09100
C241        C  0.39742588  0.29375302  0.16977242     0.10900
C242        C  0.38760101  0.26155518  0.19421078    -0.15800
C243        C  0.42854121  0.36373869  0.38387950    -0.15000
C244        C  0.41290731  0.33159541  0.35796127     0.09100
C245        C  0.39733797  0.29371461  0.32847915     0.10900
C246        C  0.38751046  0.26153142  0.30401266    -0.15800
C247        C  0.42833295  0.06333577  0.38400132    -0.15000
C248        C  0.41273974  0.07991946  0.35808687     0.09100
C249        C  0.39722493  0.10230251  0.32858667     0.10900
C250        C  0.38744075  0.12469693  0.30409033    -0.15800
C251        C  0.38758651  0.12473517  0.19428002    -0.15000
C252        C  0.39743579  0.10235194  0.16986052     0.09100
C253        C  0.41301546  0.07997547  0.14045247     0.10900
C254        C  0.42864358  0.06339145  0.11459512    -0.15800
C255        C  0.63582542  0.06330940  0.38387614    -0.15000
C256        C  0.66801380  0.07999962  0.35804554     0.09100
C257        C  0.70594097  0.10254419  0.32871062     0.10900
C258        C  0.73812613  0.12504445  0.30434738    -0.15800
C259        C  0.73823569  0.12495885  0.19456757    -0.15000
C260        C  0.70610300  0.10244979  0.17012986     0.09100
C261        C  0.66823617  0.07991824  0.14069708     0.10900
C262        C  0.63608658  0.06324955  0.11480359    -0.15800
C263        C  0.87483636  0.26177520  0.30436067    -0.15000
C264        C  0.89734120  0.29395296  0.32873416     0.09100
C265        C  0.91990258  0.33187050  0.35808283     0.10900
C266        C  0.93661121  0.36405351  0.38392261    -0.15800
C267        C  0.75285472  0.37552667  0.69249650    -0.15000
C268        C  0.78560066  0.39197270  0.66667263     0.09100
C269        C  0.82400446  0.41126332  0.63620800     0.10900
C270        C  0.85669295  0.42766652  0.61026305    -0.15800
C271        C  0.87492173  0.26168125  0.19457758    -0.15000
C272        C  0.89742419  0.29381636  0.17013977     0.09100
C273        C  0.91995354  0.33168350  0.14070605     0.10900
C274        C  0.93662693  0.36383425  0.11481382    -0.15800
C275        C  0.75284857  0.37548791  0.80611581    -0.15000
C276        C  0.78558465  0.39187968  0.83195842     0.09100
C277        C  0.82397482  0.41110059  0.86244964     0.10900
C278        C  0.85665216  0.42745653  0.88841531    -0.15800
C279        C  0.87510126  0.61229913  0.30419185    -0.15000
C280        C  0.89752047  0.60254206  0.32868100     0.09100
C281        C  0.91994809  0.58706987  0.35817010     0.10900
C282        C  0.93657018  0.57151022  0.38407608    -0.15800
C283        C  0.93649585  0.57125605  0.11463576    -0.15000
C284        C  0.91989388  0.58685573  0.14050943     0.09100
C285        C  0.89749489  0.60239447  0.16994207     0.10900
C286        C  0.87509365  0.61220930  0.19437807    -0.15800
C287        C  0.63601953  0.57121157  0.38390072    -0.15000
C288        C  0.66817248  0.58684170  0.35799933     0.09100
C289        C  0.70606598  0.60240436  0.32854245     0.10900
C290        C  0.73825712  0.61222597  0.30409500    -0.15800
C291        C  0.63604956  0.57130831  0.11448797    -0.15000
C292        C  0.66820494  0.58689965  0.14038534     0.09100
C293        C  0.70609634  0.60241219  0.16983860     0.10900
C294        C  0.73827784  0.61220437  0.19429341    -0.15800
C295        C  0.26388551  0.87258759  0.69454846    -0.15000
C296        C  0.29594622  0.89460968  0.66976591     0.09100
C297        C  0.33356457  0.91669802  0.63981477     0.10900
C298        C  0.36550607  0.93353384  0.61357336    -0.15800
C299        C  0.12739847  0.73602149  0.69457286    -0.15000
C300        C  0.10538931  0.70395230  0.66979726     0.09100
C301        C  0.08330642  0.66632913  0.63985198     0.10900
C302        C  0.06646606  0.63438447  0.61361550    -0.15800
C303        C  0.26397901  0.87252284  0.80445900    -0.15000
C304        C  0.29608789  0.89453992  0.82916853     0.09100
C305        C  0.33376712  0.91664281  0.85901689     0.10900
C306        C  0.36575526  0.93349996  0.88517938    -0.15800
C307        C  0.06646043  0.63420219  0.88523523    -0.15000
C308        C  0.08333495  0.66618771  0.85906848     0.09100
C309        C  0.10545179  0.70385866  0.82920817     0.10900
C310        C  0.12746801  0.73596039  0.80448613    -0.15800
C311        C  0.26383373  0.38938523  0.69422200    -0.15000
C312        C  0.29595117  0.39955038  0.66947902     0.09100
C313        C  0.33362893  0.41525637  0.63960126     0.10900
C314        C  0.36560930  0.43048003  0.61342349    -0.15800
C315        C  0.26388041  0.38941055  0.80411123    -0.15000
C316        C  0.29601404  0.39961572  0.82883770     0.09100
C317        C  0.33369552  0.41537032  0.85871603     0.10900
C318        C  0.36566903  0.43062110  0.88490541    -0.15800
C319        C  0.12731506  0.38958987  0.69429907    -0.15000
C320        C  0.10537619  0.39977187  0.66951412     0.09100
C321        C  0.08338551  0.41544672  0.63956025     0.10900
C322        C  0.06659298  0.43064218  0.61334445    -0.15800
C323        C  0.06653498  0.43042234  0.88532341    -0.15000
C324        C  0.08334572  0.41526728  0.85907112     0.09100
C325        C  0.10536458  0.39965632  0.82906348     0.10900
C326        C  0.12732101  0.38952759  0.80422962    -0.15800
C327        C  0.24817708  0.62341688  0.19236384    -0.15000
C328        C  0.21564752  0.60711911  0.16615105     0.09100
C329        C  0.17744942  0.58797111  0.13530147     0.10900
C330        C  0.14467978  0.57154665  0.10947161    -0.15800
C331        C  0.24819625  0.62344606  0.30627610    -0.15000
C332        C  0.21567944  0.60719169  0.33251350     0.09100
C333        C  0.17749584  0.58810308  0.36339201     0.10900
C334        C  0.14473526  0.57172498  0.38924063    -0.15800
C335        C  0.42825796  0.57161815  0.10920976    -0.15000
C336        C  0.41187773  0.58800371  0.13510296     0.09100
C337        C  0.39278828  0.60710318  0.16603356     0.10900
C338        C  0.37652839  0.62337325  0.19230126    -0.15800
C339        C  0.37653488  0.62335380  0.30622318    -0.15000
C340        C  0.39279108  0.60706072  0.33245444     0.09100
C341        C  0.41187360  0.58793085  0.36333989     0.10900
C342        C  0.42824713  0.57152265  0.38920181    -0.15800
C343        C  0.42836673  0.85522789  0.10943354    -0.15000
C344        C  0.41194235  0.82246108  0.13526985     0.09100
C345        C  0.39279637  0.78426685  0.16612809     0.10900
C346        C  0.37650122  0.75174025  0.19234754    -0.15800
C347        C  0.37647227  0.75173513  0.30625808    -0.15000
C348        C  0.39271514  0.78425873  0.33248393     0.09100
C349        C  0.41178824  0.82244977  0.36334965     0.10900
C350        C  0.42815467  0.85521434  0.38919123    -0.15800
loop_ 
_geom_bond_atom_site_label_1 
_geom_bond_atom_site_label_2 
_geom_bond_distance 
_geom_bond_site_symmetry_2 
_ccdc_geom_bond_type 
C1            H2   1.112       .  S
C1            C7   1.545       .  S
C1            C6   1.545       .  S
C1            C5   1.545       .  S
C3            H4   1.112       .  S
C3            C9   1.545       .  S
C3            C8   1.545       .  S
C3           C10   1.545       .  S
C5            C8   1.374       .  D
C5          C338   1.461       .  S
C6            C9   1.374       .  D
C6          C346   1.461       .  S
C7           C10   1.374       .  D
C7          C327   1.461       .  S
C8          C339   1.461       .  S
C9          C347   1.461       .  S
C10         C331   1.461       .  S
C11          C12   1.407       .  A
C11          C16   1.398       .  A
C11         C326   1.438       .  S
C12          C13   1.398       .  A
C12         C319   1.438       .  S
C13          C14   1.398       .  A
C13          H18   1.085       .  S
C14          C15   1.407       .  A
C14         C311   1.438       .  S
C15          C16   1.398       .  A
C15         C315   1.438       .  S
C16          H17   1.085       .  S
C19          C20   1.407       .  A
C19          C24   1.398       .  A
C19         C310   1.438       .  S
C20          C21   1.398       .  A
C20         C299   1.438       .  S
C21          C22   1.398       .  A
C21          H26   1.085       .  S
C22          C23   1.407       .  A
C22         C295   1.438       .  S
C23          C24   1.398       .  A
C23         C303   1.438       .  S
C24          H25   1.085       .  S
C27          C28   1.407       .  A
C27          C32   1.398       .  A
C27         C290   1.438       .  S
C28          C29   1.398       .  A
C28         C294   1.438       .  S
C29          C30   1.398       .  A
C29          H34   1.085       .  S
C30          C31   1.407       .  A
C30         C286   1.438       .  S
C31          C32   1.398       .  A
C31         C279   1.438       .  S
C32          H33   1.085       .  S
O35          C51   1.274       .  A
O35         Zn41   2.018       .  S
C36         C307   1.429       .  S
C36          O52   1.274       .  A
C36          O49   1.272       .  A
O37          C50   1.273       .  A
O37         Cd44   2.087       .  S
O38          C56   1.273       .  A
O38         Cd47   2.062   1_554  S
O39          C53   1.275       .  A
O39         Cd43   2.094       .  S
O40          C51   1.272       .  A
O40         Cd43   2.056   1_455  S
Zn41         O52   2.018       .  S
Zn41         O54   2.057   1_556  S
Zn41         O46   1.954       .  S
O42          C53   1.275       .  A
O42         Cd47   2.095       .  S
Cd43         O45   2.061   1_556  S
Cd43         O46   2.005   1_655  S
Cd44         O48   2.065   1_455  S
Cd44         O57   2.065   1_455  S
Cd44         O46   2.006   1_554  S
O45          C55   1.273       .  A
O46         Cd47   2.006   1_455  S
Cd47         O49   2.056   1_655  S
O48          C55   1.273       .  A
C50         C330   1.453       .  S
C50          O54   1.276       .  A
C51         C323   1.429       .  S
C53         C278   1.452       .  S
C55         C274   1.428       .  S
C56         C283   1.429       .  S
C56          O57   1.273       .  A
O58          C74   1.274       .  A
O58         Zn64   2.018       .  S
C59         C322   1.429       .  S
C59          O75   1.274       .  A
C59          O72   1.272       .  A
O60          C73   1.273       .  A
O60         Cd67   2.087       .  S
O61          C79   1.273       .  A
O61         Cd70   2.061       .  S
O62          C76   1.275       .  A
O62         Cd66   2.095       .  S
O63          C74   1.272       .  A
O63         Cd66   2.056   1_455  S
Zn64         O75   2.018       .  S
Zn64         O77   2.057       .  S
Zn64         O69   1.954       .  S
O65          C76   1.275       .  A
O65         Cd70   2.094       .  S
Cd66         O68   2.062       .  S
Cd66         O69   2.006   1_655  S
Cd67         O71   2.065   1_455  S
Cd67         O80   2.065   1_455  S
Cd67         O69   2.006       .  S
O68          C78   1.273       .  A
O69         Cd70   2.005   1_455  S
Cd70         O72   2.056   1_655  S
O71          C78   1.273       .  A
C73         C334   1.453       .  S
C73          O77   1.276       .  A
C74         C302   1.429       .  S
C76         C270   1.452       .  S
C78         C282   1.429       .  S
C79         C266   1.428       .  S
C79          O80   1.273       .  A
C81          C82   1.407       .  A
C81          C86   1.398       .  A
C81         C271   1.438       .  S
C82          C83   1.398       .  A
C82         C263   1.438       .  S
C83          C84   1.398       .  A
C83          H88   1.085       .  S
C84          C85   1.407       .  A
C84         C258   1.438       .  S
C85          C86   1.398       .  A
C85         C259   1.438       .  S
C86          H87   1.085       .  S
C89          C90   1.407       .  A
C89          C94   1.398       .  A
C89         C250   1.438       .  S
C90          C91   1.398       .  A
C90         C251   1.438       .  S
C91          C92   1.398       .  A
C91          H96   1.085       .  S
C92          C93   1.407       .  A
C92         C242   1.438       .  S
C93          C94   1.398       .  A
C93         C246   1.438       .  S
C94          H95   1.085       .  S
C97          C98   1.407       .  A
C97         C102   1.398       .  A
C97         C235   1.438       .  S
C98          C99   1.398       .  A
C98         C230   1.438       .  S
C99         C100   1.398       .  A
C99         H104   1.085       .  S
C100        C101   1.407       .  A
C100        C223   1.438       .  S
C101        C102   1.398       .  A
C101        C231   1.438       .  S
C102        H103   1.085       .  S
O105        C121   1.274       .  A
O105       Zn111   2.018       .  S
C106        C298   1.429       .  S
C106        O122   1.274       .  A
C106        O119   1.272       .  A
O107        C120   1.273       .  A
O107       Cd114   2.087       .  S
O108        C126   1.273       .  A
O108       Cd117   2.062       .  S
O109        C123   1.275       .  A
O109       Cd113   2.094       .  S
O110        C121   1.272       .  A
O110       Cd113   2.056   1_565  S
Zn111       O122   2.018       .  S
Zn111       O124   2.057       .  S
Zn111       O116   1.954       .  S
O112        C123   1.275       .  A
O112       Cd117   2.095       .  S
Cd113       O115   2.061       .  S
Cd113       O116   2.005   1_545  S
Cd114       O118   2.065   1_565  S
Cd114       O127   2.065   1_565  S
Cd114       O116   2.006       .  S
O115        C125   1.273       .  A
O116       Cd117   2.006   1_565  S
Cd117       O119   2.056   1_545  S
O118        C125   1.273       .  A
C120        C350   1.453       .  S
C120        O124   1.276       .  A
C121        C227   1.429       .  S
C123        C222   1.452       .  S
C125        C255   1.428       .  S
C126        C247   1.429       .  S
C126        O127   1.273       .  A
O128        C144   1.274       .  A
O128       Zn134   2.019       .  S
C129        C226   1.429       .  S
C129        O145   1.274       .  A
C129        O142   1.271       .  A
O130        C143   1.273       .  A
O130       Cd137   2.087       .  S
O131        C149   1.273       .  A
O131       Cd140   2.061       .  S
O132        C146   1.275       .  A
O132       Cd136   2.094       .  S
O133        C144   1.271       .  A
O133       Cd136   2.056       .  S
Zn134       O145   2.018       .  S
Zn134       O147   2.057       .  S
Zn134       O139   1.954       .  S
O135        C146   1.275       .  A
O135       Cd140   2.094       .  S
Cd136       O138   2.062       .  S
Cd136       O139   2.005       .  S
Cd137       O141   2.065       .  S
Cd137       O150   2.065       .  S
Cd137       O139   2.006       .  S
O138        C148   1.273       .  A
O139       Cd140   2.005       .  S
Cd140       O142   2.056       .  S
O141        C148   1.273       .  A
C143        C342   1.453       .  S
C143        O147   1.276       .  A
C144        C314   1.429       .  S
C146        C215   1.452       .  S
C148        C243   1.429       .  S
C149        C287   1.428       .  S
C149        O150   1.273       .  A
O151        C167   1.274       .  A
O151       Zn157   2.018       .  S
C152        C238   1.429       .  S
C152        O168   1.274       .  A
C152        O165   1.272       .  A
O153        C166   1.273       .  A
O153       Cd160   2.087       .  S
O154        C172   1.273       .  A
O154       Cd163   2.061   1_554  S
O155        C169   1.275       .  A
O155       Cd159   2.094       .  S
O156        C167   1.272       .  A
O156       Cd159   2.056   1_565  S
Zn157       O168   2.018       .  S
Zn157       O170   2.057   1_556  S
Zn157       O162   1.954       .  S
O158        C169   1.275       .  A
O158       Cd163   2.094       .  S
Cd159       O161   2.062   1_556  S
Cd159       O162   2.006   1_545  S
Cd160       O164   2.065   1_565  S
Cd160       O173   2.065   1_565  S
Cd160       O162   2.006   1_554  S
O161        C171   1.273       .  A
O162       Cd163   2.005   1_565  S
Cd163       O165   2.056   1_545  S
O164        C171   1.273       .  A
C166        C343   1.453       .  S
C166        O170   1.276       .  A
C167        C306   1.429       .  S
C169        C211   1.452       .  S
C171        C254   1.429       .  S
C172        C262   1.428       .  S
C172        O173   1.273       .  A
O174        C190   1.274       .  A
O174       Zn180   2.019       .  S
C175        C318   1.429       .  S
C175        O191   1.274       .  A
C175        O188   1.271       .  A
O176        C189   1.273       .  A
O176       Cd183   2.087       .  S
O177        C195   1.273       .  A
O177       Cd186   2.061   1_554  S
O178        C192   1.275       .  A
O178       Cd182   2.094       .  S
O179        C190   1.271       .  A
O179       Cd182   2.056       .  S
Zn180       O191   2.019       .  S
Zn180       O193   2.057   1_556  S
Zn180       O185   1.954       .  S
O181        C192   1.275       .  A
O181       Cd186   2.094       .  S
Cd182       O184   2.061   1_556  S
Cd182       O185   2.005       .  S
Cd183       O187   2.065       .  S
Cd183       O196   2.065       .  S
Cd183       O185   2.006   1_554  S
O184        C194   1.273       .  A
O185       Cd186   2.005       .  S
Cd186       O188   2.056       .  S
O187        C194   1.273       .  A
C189        C335   1.453       .  S
C189        O193   1.276       .  A
C190        C234   1.429       .  S
C192        C207   1.452       .  S
C194        C291   1.429       .  S
C195        C239   1.429       .  S
C195        O196   1.273       .  A
C197        H198   1.112       .  S
C197        C203   1.545       .  S
C197        C202   1.545       .  S
C197        C201   1.545       .  S
C199        H200   1.112       .  S
C199        C205   1.545       .  S
C199        C204   1.545       .  S
C199        C206   1.545       .  S
C201        C204   1.373       .  D
C201        C218   1.461       .  S
C202        C205   1.373       .  D
C202        C219   1.461       .  S
C203        C206   1.373       .  D
C203        C267   1.461       .  S
C204        C210   1.461       .  S
C205        C214   1.461       .  S
C206        C275   1.461       .  S
C207        C208   1.216       .  T
C208        C209   1.428       .  S
C209        C210   1.215       .  T
C211        C212   1.216       .  T
C212        C213   1.428       .  S
C213        C214   1.215       .  T
C215        C216   1.216       .  T
C216        C217   1.428       .  S
C217        C218   1.215       .  T
C219        C220   1.215       .  T
C220        C221   1.428       .  S
C221        C222   1.216       .  T
C223        C224   1.202       .  T
C224        C225   1.405       .  S
C225        C226   1.202       .  T
C227        C228   1.202       .  T
C228        C229   1.405       .  S
C229        C230   1.202       .  T
C231        C232   1.202       .  T
C232        C233   1.405       .  S
C233        C234   1.202       .  T
C235        C236   1.202       .  T
C236        C237   1.405       .  S
C237        C238   1.202       .  T
C239        C240   1.202       .  T
C240        C241   1.405       .  S
C241        C242   1.202       .  T
C243        C244   1.202       .  T
C244        C245   1.405       .  S
C245        C246   1.202       .  T
C247        C248   1.202       .  T
C248        C249   1.405       .  S
C249        C250   1.202       .  T
C251        C252   1.202       .  T
C252        C253   1.405       .  S
C253        C254   1.202       .  T
C255        C256   1.202       .  T
C256        C257   1.405       .  S
C257        C258   1.202       .  T
C259        C260   1.202       .  T
C260        C261   1.405       .  S
C261        C262   1.202       .  T
C263        C264   1.202       .  T
C264        C265   1.405       .  S
C265        C266   1.202       .  T
C267        C268   1.215       .  T
C268        C269   1.428       .  S
C269        C270   1.216       .  T
C271        C272   1.202       .  T
C272        C273   1.405       .  S
C273        C274   1.202       .  T
C275        C276   1.215       .  T
C276        C277   1.428       .  S
C277        C278   1.216       .  T
C279        C280   1.202       .  T
C280        C281   1.405       .  S
C281        C282   1.202       .  T
C283        C284   1.202       .  T
C284        C285   1.405       .  S
C285        C286   1.202       .  T
C287        C288   1.202       .  T
C288        C289   1.405       .  S
C289        C290   1.202       .  T
C291        C292   1.202       .  T
C292        C293   1.405       .  S
C293        C294   1.202       .  T
C295        C296   1.202       .  T
C296        C297   1.405       .  S
C297        C298   1.202       .  T
C299        C300   1.202       .  T
C300        C301   1.405       .  S
C301        C302   1.202       .  T
C303        C304   1.202       .  T
C304        C305   1.405       .  S
C305        C306   1.202       .  T
C307        C308   1.202       .  T
C308        C309   1.405       .  S
C309        C310   1.202       .  T
C311        C312   1.202       .  T
C312        C313   1.405       .  S
C313        C314   1.202       .  T
C315        C316   1.202       .  T
C316        C317   1.405       .  S
C317        C318   1.202       .  T
C319        C320   1.202       .  T
C320        C321   1.405       .  S
C321        C322   1.202       .  T
C323        C324   1.202       .  T
C324        C325   1.405       .  S
C325        C326   1.202       .  T
C327        C328   1.216       .  T
C328        C329   1.429       .  S
C329        C330   1.216       .  T
C331        C332   1.216       .  T
C332        C333   1.429       .  S
C333        C334   1.216       .  T
C335        C336   1.216       .  T
C336        C337   1.429       .  S
C337        C338   1.216       .  T
C339        C340   1.216       .  T
C340        C341   1.429       .  S
C341        C342   1.216       .  T
C343        C344   1.216       .  T
C344        C345   1.429       .  S
C345        C346   1.216       .  T
C347        C348   1.216       .  T
C348        C349   1.429       .  S
C349        C350   1.216       .  T
