geometry optimzed in LAMMPS
_audit_creation_date              2020-11-30 
_audit_creation_method            'lammps2cif' 
_symmetry_space_group_name_H-M    'P1' 
_symmetry_Int_Tables_number       1 
_symmetry_cell_setting            triclinic 
loop_ 
_symmetry_equiv_pos_as_xyz 
  x,y,z 
_cell_length_a                    29.10047935 
_cell_length_b                    29.039241437479554 
_cell_length_c                    26.866983701364315 
_cell_angle_alpha                 89.33941558196841 
_cell_angle_beta                  90.58643783519571 
_cell_angle_gamma                 120.31577619534319 
loop_ 
_atom_site_label 
_atom_site_type_symbol 
_atom_site_fract_x 
_atom_site_fract_y 
_atom_site_fract_z 
_atom_site_charge 
O1          O  0.79070978  0.54649220  0.33356296    -0.54700
C2          C  0.81522364  0.64029666  0.44415879     0.77900
O3          O  0.90329365  0.69782396  0.28682243    -0.55900
C4          C  0.77506491  0.53970338  0.28885687     0.77900
C5          C  0.76384188  0.69692343  0.31790918     0.80300
Cd6        Cd  0.82173068  0.64200103  0.33750680     1.37500
O7          O  0.78593841  0.59911078  0.41883530    -0.54700
O8          O  0.74080282  0.64900729  0.33265438    -0.53500
C9          C  0.93400652  0.69151818  0.31617876     0.80200
O10         O  0.81325933  0.71922039  0.30978746    -0.55900
O11         O  0.84700252  0.68218552  0.42055295    -0.54400
O12         O  0.78131888  0.58058046  0.26545378    -0.54300
O13         O  0.91293587  0.66165260  0.35353986    -0.53500
O14         O  0.53583974  0.79139290  0.72361819    -0.54700
C15         C  0.61389120  0.82857906  0.59165074     0.77900
O16         O  0.70280931  0.92614681  0.72710841    -0.55900
C17         C  0.54510551  0.79970699  0.76978286     0.77900
C18         C  0.68090511  0.77952898  0.71848378     0.80300
Cd19       Cd  0.62944144  0.83985776  0.69803239     1.37500
O20         O  0.57513819  0.81662851  0.62027589    -0.54700
O21         O  0.63200818  0.75668391  0.70729349    -0.53500
C22         C  0.68331562  0.95342801  0.71024137     0.80200
O23         O  0.70580849  0.82982731  0.72104803    -0.55900
O24         O  0.65879335  0.84477977  0.61185198    -0.54400
O25         O  0.59335000  0.82679729  0.78282583    -0.54300
O26         O  0.63874111  0.92854138  0.68846600    -0.53500
O27         O  0.23583089  0.81335837  0.42618600    -0.54700
C28         C  0.25533261  0.77882635  0.29023636     0.77900
O29         O  0.12657865  0.81216002  0.29561941    -0.55900
C30         C  0.20919302  0.82814375  0.45142907     0.77900
C31         C  0.26671679  0.94441439  0.32921540     0.80300
Cd32       Cd  0.20738190  0.83014711  0.34403861     1.37500
O33         O  0.24124368  0.76845322  0.33514401    -0.54700
O34         O  0.28693804  0.92017635  0.35133119    -0.53500
C35         C  0.09522664  0.77008125  0.31923789     0.80200
O36         O  0.21994515  0.91621028  0.31248990    -0.55900
O37         O  0.24753831  0.81346581  0.26905494    -0.54400
O38         O  0.18200653  0.84391145  0.42749222    -0.54300
O39         O  0.11551564  0.75493177  0.35270308    -0.53500
O40         O  0.53591143  0.79041514  0.30784753    -0.54700
C41         C  0.61465800  0.82829660  0.44036241     0.77900
O42         O  0.70576356  0.82725207  0.30758628    -0.55900
C43         C  0.54469379  0.79742542  0.26155432     0.77900
C44         C  0.68348403  0.95184875  0.32172059     0.80300
Cd45       Cd  0.63040419  0.83774659  0.33395648     1.37500
O46         O  0.57538524  0.80711018  0.41077752    -0.54700
O47         O  0.63606071  0.92539250  0.33696916    -0.53500
C48         C  0.68377750  0.77816847  0.31816073     0.80200
O49         O  0.70606317  0.92588724  0.31073135    -0.55900
O50         O  0.66038514  0.85317573  0.42116707    -0.54400
O51         O  0.59297160  0.82271954  0.24856411    -0.54300
O52         O  0.63686595  0.75605314  0.33479079    -0.53500
O53         O  0.25439646  0.51618289  0.30586049    -0.54700
C54         C  0.22407183  0.43762168  0.44026985     0.77900
O55         O  0.12561080  0.34754717  0.30927665    -0.55900
C56         C  0.25392419  0.50727934  0.25978715     0.77900
C57         C  0.27169768  0.36790722  0.31965292     0.80300
Cd58       Cd  0.21332604  0.42245490  0.33359215     1.37500
O59         O  0.24521609  0.47724752  0.41084731    -0.54700
O60         O  0.29442968  0.41548124  0.33490496    -0.53500
C61         C  0.09980278  0.37003031  0.32106064     0.80200
O62         O  0.22268900  0.34604354  0.30924466    -0.55900
O63         O  0.19891927  0.39202938  0.42076604    -0.54400
O64         O  0.23483077  0.45910457  0.24749239    -0.54300
O65         O  0.12615859  0.41705155  0.33738518    -0.53500
O66         O  0.49347024  0.27333851  0.31229825    -0.54700
C67         C  0.41603048  0.22944971  0.44387285     0.77900
O68         O  0.32364498  0.23341512  0.31462457    -0.55900
C69         C  0.48506825  0.26282688  0.26639462     0.77900
C70         C  0.34566367  0.10688402  0.32661829     0.80300
Cd71       Cd  0.39933346  0.22108154  0.33775394     1.37500
O72         O  0.45458123  0.24337036  0.41447342    -0.54700
O73         O  0.39158202  0.13286737  0.34571196    -0.53500
C74         C  0.34834283  0.28322430  0.32161257     0.80200
O75         O  0.32456835  0.13334274  0.31135185    -0.55900
O76         O  0.37055418  0.21222018  0.42457926    -0.54400
O77         O  0.43708274  0.23315727  0.25326823    -0.54300
O78         O  0.39661690  0.30463118  0.33460875    -0.53500
O79         O  0.79285326  0.24941606  0.41510532    -0.54700
C80         C  0.78162322  0.27055239  0.26711326     0.77900
O81         O  0.91169659  0.23975298  0.31282474    -0.55900
C82         C  0.81764370  0.23559538  0.44496089     0.77900
C83         C  0.76497111  0.11406778  0.32453292     0.80300
Cd84       Cd  0.82526970  0.22778309  0.33871144     1.37500
O85         O  0.78436782  0.28104729  0.31300044    -0.54700
O86         O  0.74383413  0.13929079  0.34170912    -0.53500
C87         C  0.93820669  0.28887369  0.32282517     0.80200
O88         O  0.81363658  0.14103381  0.31311479    -0.55900
O89         O  0.79951131  0.24088575  0.25423148    -0.54400
O90         O  0.84538262  0.21807992  0.42612620    -0.54300
O91         O  0.91275148  0.31027871  0.33872383    -0.53500
O92         O  0.75609872  0.54737377  0.70581298    -0.54700
C93         C  0.81429019  0.64104202  0.59563460     0.77900
O94         O  0.81007018  0.72225016  0.72379714    -0.55900
C95         C  0.76408615  0.54089549  0.75094351     0.77900
C96         C  0.92871310  0.69522751  0.72644884     0.80300
Cd97       Cd  0.81718030  0.64371158  0.70248540     1.37500
O98         O  0.81069969  0.60252283  0.62113366    -0.54700
O99         O  0.90954035  0.66819653  0.68741370    -0.53500
C100        C  0.75980815  0.69783483  0.72311887     0.80200
O101        O  0.89644992  0.69771476  0.75591625    -0.55900
O102        O  0.81947851  0.68085462  0.61911942    -0.54400
O103        O  0.79696471  0.58221469  0.77454074    -0.54300
O104        O  0.73594002  0.64820268  0.71561720    -0.53500
O105        O  0.79606196  0.25524135  0.62493949    -0.54700
C106        C  0.78278857  0.26975674  0.77620191     0.77900
O107        O  0.81385634  0.14149199  0.72356828    -0.55900
C108        C  0.81788215  0.23774876  0.59618354     0.77900
C109        C  0.93842238  0.28927477  0.71745964     0.80300
Cd110      Cd  0.82532313  0.22937520  0.70266306     1.37500
O111        O  0.78295857  0.27987596  0.73020400    -0.54700
O112        O  0.91363368  0.31007490  0.69756044    -0.53500
C113        C  0.76484730  0.11545258  0.71285073     0.80200
O114        O  0.91110180  0.24149873  0.73232820    -0.55900
O115        O  0.80254865  0.24123018  0.78846420    -0.54400
O116        O  0.84277254  0.21722694  0.61631043    -0.54300
O117        O  0.74327145  0.14177243  0.69865116    -0.53500
O118        O  0.25795989  0.51221643  0.72635585    -0.54700
C119        C  0.22266892  0.43585049  0.59185509     0.77900
O120        O  0.22133983  0.34148178  0.72147635    -0.55900
C121        C  0.25517257  0.50226076  0.77261278     0.77900
C122        C  0.09981807  0.36791759  0.71417880     0.80300
Cd123      Cd  0.21256892  0.41901885  0.69870171     1.37500
O124        O  0.24299405  0.47494457  0.62137408    -0.54700
O125        O  0.12557041  0.41400661  0.69505939    -0.53500
C126        C  0.27094652  0.36474043  0.71422058     0.80200
O127        O  0.12586548  0.34559632  0.72678660    -0.55900
O128        O  0.19795533  0.38985487  0.61125720    -0.54400
O129        O  0.23284900  0.45364132  0.78504456    -0.54300
O130        O  0.29382638  0.41306033  0.70058649    -0.53500
O131        O  0.49943117  0.27788187  0.72580774    -0.54700
C132        C  0.41834126  0.23116759  0.59495272     0.77900
O133        O  0.32820363  0.13893940  0.72684860    -0.55900
C134        C  0.49118633  0.26882051  0.77199882     0.77900
C135        C  0.35187092  0.28478036  0.71655149     0.80300
Cd136      Cd  0.40454121  0.22512065  0.70126037     1.37500
O137        O  0.45746593  0.24429475  0.62393849    -0.54700
O138        O  0.39843205  0.30659101  0.69908205    -0.53500
C139        C  0.34987500  0.11182376  0.71721789     0.80200
O140        O  0.33019185  0.23608686  0.72859237    -0.55900
O141        O  0.37368995  0.21576488  0.61474043    -0.54400
O142        O  0.44327787  0.24021188  0.78528717    -0.54300
O143        O  0.39701519  0.13676541  0.70111044    -0.53500
O144        O  0.22300368  0.80662560  0.63186703    -0.54700
C145        C  0.24831380  0.79612921  0.78035643     0.77900
O146        O  0.21680134  0.92496101  0.73374889    -0.55900
C147        C  0.20629365  0.82990890  0.60317400     0.77900
C148        C  0.08952567  0.77680243  0.72975533     0.80300
Cd149      Cd  0.20182181  0.83688338  0.71006822     1.37500
O150        O  0.24734825  0.78839712  0.73398040    -0.54700
O151        O  0.11357423  0.75556979  0.71025912    -0.53500
C152        C  0.26532997  0.95006990  0.72153270     0.80200
O153        O  0.11715378  0.82542060  0.74135619    -0.55900
O154        O  0.22752246  0.82274689  0.79468062    -0.54400
O155        O  0.18729184  0.85567888  0.62343235    -0.54300
O156        O  0.28493731  0.92305791  0.70529241    -0.53500
C157        C  0.67620136  0.35643984  0.13071893     0.89600
C158        C  0.62181873  0.32990914  0.15752115    -0.50700
C159        C  0.62557835  0.33676194  0.20800884     0.12500
C160        C  0.68311270  0.36966721  0.22700609     0.23400
C161        C  0.70334889  0.41514868  0.14691813    -0.51400
C162        C  0.70763339  0.42239131  0.19716108     0.12600
C163        C  0.70758222  0.33374042  0.15747566    -0.50900
C164        C  0.71106305  0.34046326  0.20803901     0.13200
H165        H  0.58382936  0.30880577  0.13883423     0.17700
H166        H  0.68523998  0.37426886  0.26799660     0.03400
H167        H  0.71835501  0.44829818  0.12068081     0.18000
H168        H  0.72513822  0.31422400  0.13749997     0.17800
C169        C  0.68022342  0.35752509  0.91111318     0.89600
C170        C  0.70988178  0.41647793  0.89452105    -0.50700
C171        C  0.71449971  0.42405723  0.84424144     0.12500
C172        C  0.68885300  0.37160362  0.81479655     0.23400
C173        C  0.62638461  0.33330509  0.88295015    -0.51400
C174        C  0.63107245  0.34035106  0.83243481     0.12600
C175        C  0.71028335  0.33309968  0.88590528    -0.50900
C176        C  0.71463523  0.34045386  0.83530540     0.13200
H177        H  0.72582340  0.44950367  0.92046623     0.17700
H178        H  0.69238589  0.37647418  0.77381149     0.03400
H179        H  0.58812498  0.31362468  0.90082647     0.18000
H180        H  0.72625446  0.31201082  0.90664714     0.17800
C181        C  0.35261061  0.70180991  0.12471800     0.89600
C182        C  0.40727469  0.72935783  0.15161019    -0.50700
C183        C  0.40406739  0.73125466  0.20224739     0.12500
C184        C  0.34678539  0.70510115  0.22134124     0.23400
C185        C  0.32240655  0.64631111  0.15004932    -0.51400
C186        C  0.31939810  0.64821105  0.20081923     0.12600
C187        C  0.32458572  0.73144810  0.14275967    -0.50900
C188        C  0.32111563  0.73308584  0.19326726     0.13200
H189        H  0.44473569  0.74341515  0.13281852     0.17700
H190        H  0.34527630  0.70635711  0.26245865     0.03400
H191        H  0.30576929  0.60939092  0.12943139     0.18000
H192        H  0.30861961  0.74944688  0.11750347     0.17800
C193        C  0.35314954  0.69853095  0.90421164     0.89600
C194        C  0.32467403  0.64214772  0.88089183    -0.50700
C195        C  0.32238917  0.64277759  0.82987129     0.12500
C196        C  0.34864957  0.69882373  0.80730129     0.23400
C197        C  0.40820271  0.72686083  0.87840078    -0.51400
C198        C  0.40538526  0.72720241  0.82760826     0.12600
C199        C  0.32361046  0.72596217  0.88253786    -0.50900
C200        C  0.32145350  0.72598354  0.83161526     0.13200
H201        H  0.30835653  0.60572897  0.90283120     0.17700
H202        H  0.34682105  0.69908723  0.76594593     0.03400
H203        H  0.44575245  0.74271153  0.89793217     0.18000
H204        H  0.30615656  0.74339879  0.90575006     0.17800
C205        C  0.39937852  0.73639078  0.04048810    -0.10300
C206        C  0.35399275  0.70025583  0.06770036     0.11900
C207        C  0.30760512  0.66576551  0.04061528    -0.10300
C208        C  0.30773511  0.66503318  0.98838283    -0.10300
C209        C  0.35419984  0.69888346  0.96135660     0.11900
C210        C  0.39947768  0.73575078  0.98848892    -0.10300
H211        H  0.43467565  0.76705905  0.05871910     0.15900
H212        H  0.27091951  0.63939675  0.05991423     0.15900
H213        H  0.27121920  0.63804374  0.96900068     0.15900
H214        H  0.43487489  0.76607033  0.97019263     0.15900
C215        C  0.62915370  0.31975447  0.04615133    -0.10300
C216        C  0.67588692  0.35097651  0.07403404     0.11900
C217        C  0.72428165  0.37875035  0.04798904    -0.10300
C218        C  0.72532724  0.37881549  0.99590034    -0.10300
C219        C  0.67798905  0.35129744  0.96794996     0.11900
C220        C  0.63019417  0.31985131  0.99416947    -0.10300
H221        H  0.59115241  0.29475881  0.06349002     0.15900
H222        H  0.76137902  0.40187589  0.06810839     0.15900
H223        H  0.76318896  0.40200476  0.97724772     0.15900
H224        H  0.59294521  0.29466630  0.97551653     0.15900
C225        C  0.29584399  0.74868058  0.79968950    -0.13300
C226        C  0.27244413  0.77529016  0.81600920    -0.28500
H227        H  0.29681573  0.74308916  0.75988321     0.15700
H228        H  0.27107346  0.78221401  0.85539447     0.16300
C229        C  0.53455169  0.28970528  0.80909897    -0.13300
C230        C  0.58600131  0.32022233  0.79632965    -0.28500
H231        H  0.52312139  0.27854729  0.84753030     0.15700
H232        H  0.59601828  0.33025377  0.75734987     0.16300
C233        C  0.29642675  0.00700543  0.72433462    -0.10200
C234        C  0.32158545  0.05499631  0.72293888    -0.11700
C235        C  0.27673797  0.54498357  0.81025817    -0.13300
C236        C  0.29865177  0.59620925  0.79613836    -0.28500
H237        H  0.27450231  0.53409184  0.84927233     0.15700
H238        H  0.30005879  0.60532992  0.75666300     0.16300
C239        C  0.29987698  0.33711487  0.71979557    -0.10200
C240        C  0.32405027  0.31353598  0.72064829    -0.11700
C241        C  0.76039405  0.28959921  0.81384039    -0.13300
C242        C  0.74014871  0.32056830  0.80068336    -0.28500
H243        H  0.76002781  0.27779791  0.85232943     0.15700
H244        H  0.74105631  0.33135300  0.76170623     0.16300
C245        C  0.04322164  0.34144183  0.71996264    -0.10200
C246        C  0.99532193  0.31808674  0.72116121    -0.11700
C247        C  0.73601774  0.48739378  0.77376071    -0.13300
C248        C  0.74246822  0.47829576  0.82170800    -0.28500
H249        H  0.70863691  0.45503315  0.74999688     0.15700
H250        H  0.76821923  0.51167455  0.84551214     0.16300
C251        C  0.98498835  0.72313444  0.73543789    -0.10200
C252        C  0.03293438  0.74748499  0.73620222    -0.11700
C253        C  0.73773453  0.32136282  0.24326665    -0.13300
C254        C  0.75831143  0.29095344  0.23012840    -0.28500
H255        H  0.73898037  0.33177479  0.28216660     0.15700
H256        H  0.75709569  0.27928793  0.19175119     0.16300
C257        C  0.81467737  0.23937603  0.49800035    -0.10200
C258        C  0.81468196  0.24032654  0.54290323    -0.15900
C259        C  0.57982965  0.31557082  0.24300167    -0.13300
C260        C  0.52857395  0.28358395  0.22968641    -0.28500
H261        H  0.58926560  0.32645140  0.28186613     0.15700
H262        H  0.51762883  0.27149499  0.19137022     0.16300
C263        C  0.42295038  0.23267319  0.49693500    -0.10200
C264        C  0.42368089  0.23319557  0.54181147    -0.11700
C265        C  0.27489124  0.55061164  0.22214926    -0.13300
C266        C  0.29475611  0.60172521  0.23546002    -0.28500
H267        H  0.27470277  0.54009446  0.18353176     0.15700
H268        H  0.29456612  0.61072224  0.27456564     0.16300
C269        C  0.22766047  0.44337045  0.49357865    -0.10200
C270        C  0.22705408  0.44272245  0.53857846    -0.11700
C271        C  0.99496456  0.31866202  0.31797075    -0.10200
C272        C  0.04290180  0.34276436  0.31751345    -0.11700
C273        C  0.29982418  0.33925928  0.31599321    -0.10200
C274        C  0.32234943  0.31395538  0.31658361    -0.11700
C275        C  0.44982829  0.75285633  0.23770698    -0.13300
C276        C  0.50131197  0.77740906  0.22424370    -0.28500
H277        H  0.44021981  0.74809630  0.27708391     0.15700
H278        H  0.51248648  0.78365037  0.18533998     0.16300
C279        C  0.71108375  0.00901898  0.31861031    -0.10200
C280        C  0.73532153  0.05710770  0.31952848    -0.11700
C281        C  0.27969699  0.75140786  0.26520431    -0.13300
C282        C  0.29539288  0.76026860  0.21741017    -0.28500
H283        H  0.28400011  0.72244181  0.28743531     0.15700
H284        H  0.28851102  0.78762921  0.19500382     0.16300
C285        C  0.20873651  0.82753451  0.54987972    -0.10200
C286        C  0.20965087  0.82719437  0.50495988    -0.11700
C287        C  0.29509739  0.00156579  0.32453932    -0.10200
C288        C  0.31828980  0.04969576  0.32370872    -0.11700
C289        C  0.50220772  0.77891520  0.80685830    -0.13300
C290        C  0.45101636  0.74995576  0.79291600    -0.28500
H291        H  0.51329052  0.78781672  0.84571012     0.15700
H292        H  0.44147358  0.74257319  0.75354999     0.16300
C293        C  0.60825543  0.82475104  0.49350093    -0.10200
C294        C  0.60797113  0.82481144  0.53842597    -0.11700
C295        C  0.71112942  0.01033655  0.71456073    -0.10200
C296        C  0.73528629  0.05835935  0.71539919    -0.11700
C297        C  0.73112645  0.72567906  0.72786719    -0.10200
C298        C  0.70754804  0.74985348  0.72613554    -0.11700
C299        C  0.75059431  0.48628891  0.26644183    -0.13300
C300        C  0.73302324  0.47656881  0.21918079    -0.28500
H301        H  0.74770268  0.45439075  0.28999139     0.15700
H302        H  0.73841927  0.50948194  0.19544266     0.16300
C303        C  0.99067942  0.71838882  0.30915470    -0.10200
C304        C  0.03872989  0.74172773  0.31028622    -0.11700
C305        C  0.81294107  0.63983114  0.54229712    -0.10200
C306        C  0.81304601  0.63954884  0.49745901    -0.11700
C307        C  0.73537033  0.72524360  0.31274219    -0.10200
C308        C  0.71146164  0.74919387  0.31305909    -0.11700
loop_ 
_geom_bond_atom_site_label_1 
_geom_bond_atom_site_label_2 
_geom_bond_distance 
_geom_bond_site_symmetry_2 
_ccdc_geom_bond_type 
O1            C4   1.262       .  A
O1           Cd6   2.449       .  S
C2           O11   1.263       .  A
C2            O7   1.264       .  A
C2          C306   1.433       .  S
O3            C9   1.266       .  A
O3           Cd6   2.499       .  S
C4           O12   1.267       .  A
C4          C299   1.474       .  S
C5           O10   1.264       .  A
C5            O8   1.262       .  A
C5          C307   1.437       .  S
Cd6          O13   2.451       .  S
Cd6          O12   2.495       .  S
Cd6          O11   2.458       .  S
Cd6           O7   2.467       .  S
Cd6          O10   2.482       .  S
Cd6           O8   2.466       .  S
C9           O13   1.262       .  A
C9          C303   1.438       .  S
O14          C17   1.266       .  A
O14         Cd19   2.453       .  S
C15          O24   1.263       .  A
C15          O20   1.265       .  A
C15         C294   1.437       .  S
O16          C22   1.263       .  A
O16         Cd19   2.461       .  S
C17          O25   1.263       .  A
C17         C289   1.472       .  S
C18          O23   1.263       .  A
C18          O21   1.264       .  A
C18         C298   1.433       .  S
Cd19         O26   2.461       .  S
Cd19         O25   2.462       .  S
Cd19         O24   2.454       .  S
Cd19         O20   2.491       .  S
Cd19         O23   2.455       .  S
Cd19         O21   2.464       .  S
C22          O26   1.263       .  A
C22         C295   1.432   1_565  S
O27          C30   1.264       .  A
O27         Cd32   2.478       .  S
C28          O37   1.266       .  A
C28          O33   1.262       .  A
C28         C281   1.477       .  S
O29          C35   1.264       .  A
O29         Cd32   2.491       .  S
C30          O38   1.264       .  A
C30         C286   1.438       .  S
C31          O36   1.263       .  A
C31          O34   1.263       .  A
C31         C287   1.437   1_565  S
Cd32         O39   2.465       .  S
Cd32         O38   2.467       .  S
Cd32         O37   2.510       .  S
Cd32         O33   2.457       .  S
Cd32         O36   2.477       .  S
Cd32         O34   2.475       .  S
C35          O39   1.262       .  A
C35         C304   1.438       .  S
O40          C43   1.266       .  A
O40         Cd45   2.472       .  S
C41          O50   1.262       .  A
C41          O46   1.265       .  A
C41         C293   1.437       .  S
O42          C48   1.263       .  A
O42         Cd45   2.473       .  S
C43          O51   1.264       .  A
C43         C276   1.478       .  S
C44          O49   1.264       .  A
C44          O47   1.264       .  A
C44         C279   1.435   1_565  S
Cd45         O52   2.472       .  S
Cd45         O51   2.476       .  S
Cd45         O50   2.458       .  S
Cd45         O46   2.490       .  S
Cd45         O49   2.468       .  S
Cd45         O47   2.468       .  S
C48          O52   1.264       .  A
C48         C308   1.437       .  S
O53          C56   1.266       .  A
O53         Cd58   2.466       .  S
C54          O63   1.262       .  A
C54          O59   1.266       .  A
C54         C269   1.440       .  S
O55          C61   1.263       .  A
O55         Cd58   2.463       .  S
C56          O64   1.264       .  A
C56         C265   1.479       .  S
C57          O62   1.264       .  A
C57          O60   1.265       .  A
C57         C273   1.436       .  S
Cd58         O65   2.464       .  S
Cd58         O64   2.485       .  S
Cd58         O63   2.458       .  S
Cd58         O59   2.499       .  S
Cd58         O62   2.464       .  S
Cd58         O60   2.468       .  S
C61          O65   1.263       .  A
C61         C272   1.433       .  S
O66          C69   1.265       .  A
O66         Cd71   2.468       .  S
C67          O76   1.262       .  A
C67          O72   1.264       .  A
C67         C263   1.435       .  S
O68          C74   1.264       .  A
O68         Cd71   2.476       .  S
C69          O77   1.265       .  A
C69         C260   1.477       .  S
C70          O75   1.265       .  A
C70          O73   1.263       .  A
C70         C288   1.437       .  S
Cd71         O78   2.468       .  S
Cd71         O77   2.475       .  S
Cd71         O76   2.453       .  S
Cd71         O72   2.483       .  S
Cd71         O75   2.478       .  S
Cd71         O73   2.462       .  S
C74          O78   1.263       .  A
C74         C274   1.436       .  S
O79          C82   1.264       .  A
O79         Cd84   2.483       .  S
C80          O89   1.263       .  A
C80          O85   1.265       .  A
C80         C254   1.475       .  S
O81          C87   1.263       .  A
O81         Cd84   2.465       .  S
C82          O90   1.263       .  A
C82         C257   1.437       .  S
C83          O88   1.264       .  A
C83          O86   1.263       .  A
C83         C280   1.435       .  S
Cd84         O91   2.462       .  S
Cd84         O90   2.462       .  S
Cd84         O89   2.468       .  S
Cd84         O85   2.471       .  S
Cd84         O88   2.471       .  S
Cd84         O86   2.465       .  S
C87          O91   1.263       .  A
C87         C271   1.433       .  S
O92          C95   1.262       .  A
O92         Cd97   2.444       .  S
C93         O102   1.263       .  A
C93          O98   1.264       .  A
C93         C305   1.434       .  S
O94         C100   1.263       .  A
O94         Cd97   2.466       .  S
C95         O103   1.266       .  A
C95         C247   1.471       .  S
C96         O101   1.264       .  A
C96          O99   1.262       .  A
C96         C251   1.433       .  S
Cd97        O104   2.462       .  S
Cd97        O103   2.483       .  S
Cd97        O102   2.462       .  S
Cd97         O98   2.463       .  S
Cd97        O101   2.485       .  S
Cd97         O99   2.445       .  S
C100        O104   1.262       .  A
C100        C297   1.433       .  S
O105        C108   1.266       .  A
O105       Cd110   2.495       .  S
C106        O115   1.263       .  A
C106        O111   1.266       .  A
C106        C241   1.478       .  S
O107        C113   1.264       .  A
O107       Cd110   2.460       .  S
C108        O116   1.262       .  A
C108        C258   1.437       .  S
C109        O114   1.264       .  A
C109        O112   1.263       .  A
C109        C246   1.432       .  S
Cd110       O117   2.460       .  S
Cd110       O116   2.447       .  S
Cd110       O115   2.480       .  S
Cd110       O111   2.467       .  S
Cd110       O114   2.463       .  S
Cd110       O112   2.457       .  S
C113        O117   1.264       .  A
C113        C296   1.433       .  S
O118        C121   1.267       .  A
O118       Cd123   2.457       .  S
C119        O128   1.263       .  A
C119        O124   1.265       .  A
C119        C270   1.441       .  S
O120        C126   1.264       .  A
O120       Cd123   2.461       .  S
C121        O129   1.263       .  A
C121        C235   1.478       .  S
C122        O127   1.263       .  A
C122        O125   1.263       .  A
C122        C245   1.432       .  S
Cd123       O130   2.456       .  S
Cd123       O129   2.483       .  S
Cd123       O128   2.466       .  S
Cd123       O124   2.499       .  S
Cd123       O127   2.460       .  S
Cd123       O125   2.462       .  S
C126        O130   1.263       .  A
C126        C239   1.432       .  S
O131        C134   1.266       .  A
O131       Cd136   2.474       .  S
C132        O141   1.262       .  A
C132        O137   1.264       .  A
C132        C264   1.435       .  S
O133        C139   1.263       .  A
O133       Cd136   2.460       .  S
C134        O142   1.263       .  A
C134        C229   1.473       .  S
C135        O140   1.263       .  A
C135        O138   1.264       .  A
C135        C240   1.432       .  S
Cd136       O143   2.463       .  S
Cd136       O142   2.456       .  S
Cd136       O141   2.451       .  S
Cd136       O137   2.484       .  S
Cd136       O140   2.461       .  S
Cd136       O138   2.460       .  S
C139        O143   1.263       .  A
C139        C234   1.432       .  S
O144        C147   1.265       .  A
O144       Cd149   2.486       .  S
C145        O154   1.263       .  A
C145        O150   1.266       .  A
C145        C226   1.476       .  S
O146        C152   1.264       .  A
O146       Cd149   2.458       .  S
C147        O155   1.263       .  A
C147        C285   1.439       .  S
C148        O153   1.263       .  A
C148        O151   1.263       .  A
C148        C252   1.433       .  S
Cd149       O156   2.453       .  S
Cd149       O155   2.465       .  S
Cd149       O154   2.480       .  S
Cd149       O150   2.449       .  S
Cd149       O153   2.469       .  S
Cd149       O151   2.459       .  S
C152        O156   1.263       .  A
C152        C233   1.432   1_565  S
C157        C158   1.548       .  S
C157        C163   1.539       .  S
C157        C161   1.540       .  S
C157        C216   1.532       .  S
C158        H165   1.078       .  S
C158        C159   1.368       .  D
C159        C160   1.535       .  S
C159        C259   1.490       .  S
C160        C164   1.535       .  S
C160        C162   1.542       .  S
C160        H166   1.108       .  S
C161        H167   1.087       .  S
C161        C162   1.363       .  D
C162        C300   1.487       .  S
C163        H168   1.084       .  S
C163        C164   1.370       .  D
C164        C253   1.488       .  S
C169        C170   1.540       .  S
C169        C175   1.542       .  S
C169        C173   1.548       .  S
C169        C219   1.534       .  S
C170        H177   1.087       .  S
C170        C171   1.363       .  D
C171        C172   1.540       .  S
C171        C248   1.484       .  S
C172        C176   1.533       .  S
C172        C174   1.530       .  S
C172        H178   1.108       .  S
C173        H179   1.077       .  S
C173        C174   1.368       .  D
C174        C230   1.489       .  S
C175        H180   1.084       .  S
C175        C176   1.371       .  D
C176        C242   1.486       .  S
C181        C182   1.548       .  S
C181        C187   1.539       .  S
C181        C185   1.546       .  S
C181        C206   1.535       .  S
C182        H189   1.080       .  S
C182        C183   1.368       .  D
C183        C184   1.533       .  S
C183        C275   1.490       .  S
C184        C188   1.541       .  S
C184        C186   1.533       .  S
C184        H190   1.108       .  S
C185        H191   1.084       .  S
C185        C186   1.371       .  D
C186        C266   1.487       .  S
C187        H192   1.086       .  S
C187        C188   1.365       .  D
C188        C282   1.491       .  S
C193        C194   1.550       .  S
C193        C199   1.544       .  S
C193        C197   1.550       .  S
C193        C209   1.535       .  S
C194        H201   1.084       .  S
C194        C195   1.372       .  D
C195        C196   1.527       .  S
C195        C236   1.483       .  S
C196        C200   1.526       .  S
C196        C198   1.524       .  S
C196        H202   1.112       .  S
C197        H203   1.080       .  S
C197        C198   1.366       .  D
C198        C290   1.481       .  S
C199        H204   1.085       .  S
C199        C200   1.369       .  D
C200        C225   1.482       .  S
C205        C206   1.408       .  A
C205        C210   1.397   1_554  A
C205        H211   1.079       .  S
C206        C207   1.410       .  A
C207        C208   1.404   1_554  A
C207        H212   1.083       .  S
C208        C209   1.408       .  A
C208        H213   1.083       .  S
C209        C210   1.410       .  A
C210        H214   1.078       .  S
C215        C216   1.408       .  A
C215        C220   1.397   1_554  A
C215        H221   1.077       .  S
C216        C217   1.409       .  A
C217        C218   1.400   1_554  A
C217        H222   1.083       .  S
C218        C219   1.408       .  A
C218        H223   1.083       .  S
C219        C220   1.410       .  A
C220        H224   1.076       .  S
C225        H227   1.086       .  S
C225        C226   1.341       .  D
C226        H228   1.084       .  S
C229        H231   1.083       .  S
C229        C230   1.345       .  D
C230        H232   1.086       .  S
C233        C234   1.204       .  T
C235        H237   1.084       .  S
C235        C236   1.341       .  D
C236        H238   1.086       .  S
C239        C240   1.204       .  T
C241        H243   1.084       .  S
C241        C242   1.343       .  D
C242        H244   1.086       .  S
C245        C246   1.204   1_455  T
C247        H249   1.083       .  S
C247        C248   1.342       .  D
C248        H250   1.087       .  S
C251        C252   1.205   1_655  T
C253        H255   1.086       .  S
C253        C254   1.345       .  D
C254        H256   1.084       .  S
C257        C258   1.207       .  T
C259        H261   1.086       .  S
C259        C260   1.347       .  D
C260        H262   1.083       .  S
C263        C264   1.206       .  T
C265        H267   1.084       .  S
C265        C266   1.344       .  D
C266        H268   1.086       .  S
C269        C270   1.209       .  T
C271        C272   1.204   1_655  T
C273        C274   1.206       .  T
C275        H277   1.086       .  S
C275        C276   1.346       .  D
C276        H278   1.084       .  S
C279        C280   1.206       .  T
C281        H283   1.083       .  S
C281        C282   1.345       .  D
C282        H284   1.087       .  S
C285        C286   1.208       .  T
C287        C288   1.207       .  T
C289        H291   1.084       .  S
C289        C290   1.341       .  D
C290        H292   1.087       .  S
C293        C294   1.207       .  T
C295        C296   1.204       .  T
C297        C298   1.204       .  T
C299        H301   1.084       .  S
C299        C300   1.343       .  D
C300        H302   1.087       .  S
C303        C304   1.208   1_655  T
C305        C306   1.205       .  T
C307        C308   1.207       .  T
