geometry optimzed in LAMMPS
_audit_creation_date              2020-11-30 
_audit_creation_method            'lammps2cif' 
_symmetry_space_group_name_H-M    'P1' 
_symmetry_Int_Tables_number       1 
_symmetry_cell_setting            triclinic 
loop_ 
_symmetry_equiv_pos_as_xyz 
  x,y,z 
_cell_length_a                    36.02864776 
_cell_length_b                    36.000012293082285 
_cell_length_c                    31.26054494256257 
_cell_angle_alpha                 89.43936645209489 
_cell_angle_beta                  89.98415605011256 
_cell_angle_gamma                 120.65952216800991 
loop_ 
_atom_site_label 
_atom_site_type_symbol 
_atom_site_fract_x 
_atom_site_fract_y 
_atom_site_fract_z 
_atom_site_charge 
In1        In  0.81774565  0.63750644  0.34308071     1.36900
C2          C  0.81522452  0.63101271  0.42801538     0.79600
O3          O  0.88151689  0.64083736  0.34910043    -0.58900
O4          O  0.88073283  0.69438427  0.32086737    -0.49800
C5          C  0.78653267  0.57167537  0.28888534     0.72200
O6          O  0.77470860  0.56712414  0.32741202    -0.44600
C7          C  0.76970340  0.67273053  0.32666173     0.77000
O8          O  0.80666002  0.59961955  0.40427103    -0.56500
O9          O  0.80952070  0.69186773  0.31866116    -0.46600
O10         O  0.82476327  0.66555830  0.40860616    -0.52900
C11         C  0.90281919  0.67817403  0.33295089     0.87100
O12         O  0.81406885  0.60971479  0.27783551    -0.54800
O13         O  0.75402332  0.63519707  0.34205107    -0.58100
In14       In  0.63332671  0.83318292  0.72060311     1.36900
C15         C  0.62474644  0.83033966  0.63585903     0.79600
O16         O  0.63215812  0.89516146  0.71918813    -0.58900
O17         O  0.68881668  0.89722466  0.74147959    -0.49800
C18         C  0.56967187  0.79993538  0.77802022     0.72200
O19         O  0.56306573  0.79509205  0.73840696    -0.44600
C20         C  0.66968145  0.78544625  0.73299390     0.77000
O21         O  0.59284651  0.81514083  0.66093768    -0.56500
O22         O  0.68876584  0.82513132  0.74111846    -0.46600
O23         O  0.66091163  0.84704427  0.65385593    -0.52900
C24         C  0.66988486  0.91772201  0.73333496     0.87100
O25         O  0.60874163  0.82161409  0.78857944    -0.54800
O26         O  0.63187132  0.76985057  0.71912826    -0.58100
In27       In  0.20340072  0.83454364  0.34797561     1.36900
C28         C  0.20521352  0.83071123  0.43298136     0.79600
O29         O  0.26522244  0.89846519  0.35313959    -0.58900
O30         O  0.21512075  0.89558730  0.31502069    -0.49800
C31         C  0.23721841  0.80156488  0.29544904     0.72200
O32         O  0.24490030  0.80580733  0.33489637    -0.44600
C33         C  0.11834129  0.78868245  0.33753117     0.77000
O34         O  0.21636812  0.80989196  0.40936867    -0.56500
O35         O  0.13996043  0.82891719  0.33156542    -0.46600
O36         O  0.19292761  0.85321905  0.41337331    -0.52900
C37         C  0.25252896  0.91841964  0.32980246     0.87100
O38         O  0.21215974  0.81396715  0.28257086    -0.54800
O39         O  0.14002146  0.77162007  0.34824047    -0.58100
In40       In  0.63035571  0.83024126  0.33697407     1.36900
C41         C  0.62242231  0.82686536  0.42189744     0.79600
O42         O  0.62701917  0.76603965  0.33528710    -0.58900
O43         O  0.68644191  0.82236749  0.31889286    -0.49800
C44         C  0.56609365  0.79901268  0.28070606     0.72200
O45         O  0.56010646  0.78964511  0.31996914    -0.44600
C46         C  0.66898653  0.91529109  0.32458723     0.77000
O47         O  0.59122862  0.81780738  0.39742227    -0.56500
O48         O  0.68508364  0.89350089  0.31160711    -0.46600
O49         O  0.65738644  0.83724372  0.40320623    -0.52900
C50         C  0.66586881  0.78199319  0.32417467     0.87100
O51         O  0.60485133  0.82385985  0.26989008    -0.54800
O52         O  0.63302405  0.89374414  0.34314876    -0.58100
In53       In  0.20916179  0.41027896  0.34010605     1.36900
C54         C  0.21136715  0.41615126  0.42478894     0.79600
O55         O  0.14730436  0.41160752  0.34271497    -0.58900
O56         O  0.14444348  0.35432085  0.32161744    -0.49800
C57         C  0.24218995  0.47612263  0.28456045     0.72200
O58         O  0.24907306  0.48115845  0.32411722    -0.44600
C59         C  0.25632999  0.37365747  0.32582939     0.77000
O60         O  0.22759412  0.44894661  0.40059835    -0.56500
O61         O  0.21796932  0.35731653  0.31338953    -0.46600
O62         O  0.19412891  0.38048633  0.40591531    -0.52900
C63         C  0.12420703  0.37337882  0.33005612     0.87100
O64         O  0.21868400  0.43755256  0.27312071    -0.54800
O65         O  0.27101636  0.40900571  0.34489347    -0.58100
In66       In  0.39746817  0.21778079  0.33508115     1.36900
C67         C  0.40109245  0.22220645  0.41994861     0.79600
O68         O  0.39965120  0.28135934  0.33298055    -0.58900
O69         O  0.34106719  0.22487393  0.31618372    -0.49800
C70         C  0.46455018  0.25008330  0.28159899     0.72200
O71         O  0.46852880  0.24871218  0.32148055    -0.44600
C72         C  0.36166688  0.13336110  0.32204300     0.77000
O73         O  0.43437410  0.24106934  0.39667024    -0.56500
O74         O  0.34737439  0.15543879  0.30514974    -0.46600
O75         O  0.36608522  0.20133712  0.40005266    -0.52900
C76         C  0.36097383  0.26510924  0.32156261     0.87100
O77         O  0.42643372  0.23495848  0.26883614    -0.54800
O78         O  0.39467901  0.15435378  0.34472314    -0.58100
In79       In  0.82311969  0.21486031  0.34506895     1.36900
C80         C  0.81927503  0.21918312  0.42984641     0.79600
O81         O  0.76058568  0.15093210  0.34869677    -0.58900
O82         O  0.81386826  0.15341972  0.31688075    -0.49800
C83         C  0.79113682  0.24672723  0.28852214     0.72200
O84         O  0.78376080  0.24522302  0.32806383    -0.44600
C85         C  0.90841209  0.26299625  0.33458446     0.77000
O86         O  0.80749068  0.23888795  0.40495973    -0.56500
O87         O  0.88826098  0.22241876  0.33283717    -0.46600
O88         O  0.83269124  0.19721159  0.41164829    -0.52900
C89         C  0.77526218  0.13069434  0.32914577     0.87100
O90         O  0.81458772  0.23178489  0.27765618    -0.54800
O91         O  0.88517351  0.27917232  0.34131397    -0.58100
In92       In  0.81925245  0.63700515  0.72646296     1.36900
C93         C  0.81576233  0.62957660  0.64182423     0.79600
O94         O  0.75711740  0.63761202  0.72241113    -0.58900
O95         O  0.81295230  0.69381267  0.74486040    -0.49800
C96         C  0.78641238  0.57222123  0.78335407     0.72200
O97         O  0.79082684  0.56698168  0.74434879    -0.44600
C98         C  0.90331086  0.67305810  0.74128279     0.77000
O99         O  0.79275935  0.59812184  0.66642074    -0.56500
O100        O  0.88262646  0.69162961  0.74983069    -0.46600
O101        O  0.84036470  0.66458893  0.66025700    -0.52900
C102        C  0.77353196  0.67571122  0.73563196     0.87100
O103        O  0.79866448  0.61050785  0.79359540    -0.54800
O104        O  0.88110213  0.63584148  0.72596631    -0.58100
In105      In  0.82259006  0.21840935  0.72863772     1.36900
C106        C  0.81993644  0.22138293  0.64380953     0.79600
O107        O  0.88509886  0.28222619  0.72587698    -0.58900
O108        O  0.88570676  0.22828693  0.75307374    -0.49800
C109        C  0.78888796  0.24920064  0.78365072     0.72200
O110        O  0.79194815  0.25764764  0.74421888    -0.44600
C111        C  0.77510584  0.13321845  0.73929205     0.77000
O112        O  0.79999709  0.23368828  0.66740420    -0.56500
O113        O  0.81382308  0.15484309  0.75107260    -0.46600
O114        O  0.84121062  0.20768206  0.66336921    -0.52900
C115        C  0.90694209  0.26758789  0.74245911     0.87100
O116        O  0.80305101  0.22517593  0.79518481    -0.54800
O117        O  0.76019910  0.15504487  0.72308692    -0.58100
In118      In  0.20620226  0.40864853  0.72354005     1.36900
C119        C  0.21093342  0.41532485  0.63864309     0.79600
O120        O  0.26875555  0.40871619  0.72324025    -0.58900
O121        O  0.21167471  0.35139454  0.74292035    -0.49800
C122        C  0.23921787  0.47340793  0.77890157     0.72200
O123        O  0.23785779  0.47920907  0.73930099    -0.44600
C124        C  0.12195641  0.37336082  0.73783596     0.77000
O125        O  0.23112839  0.44755759  0.66244092    -0.56500
O126        O  0.14255962  0.35534154  0.74916022    -0.46600
O127        O  0.18863181  0.37982121  0.65798894    -0.52900
C128        C  0.25164521  0.37008048  0.73588786     0.87100
O129        O  0.22356961  0.43462658  0.79044206    -0.54800
O130        O  0.14431475  0.40967984  0.71990107    -0.58100
In131      In  0.39072209  0.21256010  0.71898262     1.36900
C132        C  0.39657905  0.21778755  0.63406782     0.79600
O133        O  0.38844097  0.14912472  0.71509303    -0.58900
O134        O  0.33718473  0.15042605  0.74718962    -0.49800
C135        C  0.45768884  0.24372869  0.77173732     0.72200
O136        O  0.46123165  0.24006837  0.73222571    -0.44600
C137        C  0.35397010  0.25945656  0.73232691     0.77000
O138        O  0.42875413  0.23866344  0.65784891    -0.56500
O139        O  0.33528240  0.21972162  0.74100812    -0.46600
O140        O  0.36140010  0.19429593  0.65345525    -0.52900
C141        C  0.35316824  0.12832975  0.73499229     0.87100
O142        O  0.42005415  0.23157658  0.78457594    -0.54800
O143        O  0.39153142  0.27547713  0.71724901    -0.58100
In144      In  0.20300017  0.82879803  0.73246420     1.36900
C145        C  0.20557321  0.82869439  0.64733452     0.79600
O146        O  0.14012935  0.76554639  0.72800015    -0.58900
O147        O  0.13979417  0.81776331  0.75844114    -0.49800
C148        C  0.23873102  0.79737312  0.78554307     0.72200
O149        O  0.23915225  0.79410341  0.74555994    -0.44600
C150        C  0.24945052  0.91343972  0.74430277     0.77000
O151        O  0.22065827  0.81055792  0.67021377    -0.56500
O152        O  0.21065708  0.89104050  0.75609452    -0.46600
O153        O  0.18907980  0.84675486  0.66773150    -0.52900
C154        C  0.11835343  0.77932262  0.74607223     0.87100
O155        O  0.22004005  0.81660711  0.79874690    -0.54800
O156        O  0.26503273  0.89261496  0.72764519    -0.58100
C157        C  0.68752963  0.35796067  0.09382965     0.88500
C158        C  0.64140989  0.33439881  0.11325487    -0.51700
C159        C  0.64082122  0.33371351  0.15684222     0.11400
C160        C  0.68554112  0.35615544  0.17738413     0.22400
C161        C  0.70975998  0.40298119  0.11427666    -0.52500
C162        C  0.70853180  0.40182464  0.15793779     0.11500
C163        C  0.70963368  0.33519164  0.11414160    -0.52000
C164        C  0.70845374  0.33427027  0.15773709     0.12100
H165        H  0.61162468  0.31993930  0.09529457     0.16600
H166        H  0.68472567  0.35539756  0.21295204     0.02300
H167        H  0.72486814  0.43294320  0.09587584     0.16900
H168        H  0.72488276  0.32114437  0.09566653     0.16700
C169        C  0.66599814  0.34632615  0.96970782     0.88500
C170        C  0.69038827  0.39297387  0.95213062    -0.52300
C171        C  0.69538621  0.39541724  0.90872115     0.11400
C172        C  0.67556079  0.35141516  0.88680344     0.22400
C173        C  0.62320244  0.32413111  0.94505174    -0.52500
C174        C  0.62837864  0.32687882  0.90180005     0.11500
C175        C  0.69113990  0.32540875  0.95280737    -0.52000
C176        C  0.69604123  0.32825491  0.90937821     0.12100
H177        H  0.70235387  0.42128827  0.97211349     0.16600
H178        H  0.67957340  0.35353585  0.85143132     0.02300
H179        H  0.59163946  0.30775587  0.96035883     0.16900
H180        H  0.70354548  0.30964557  0.97318733     0.16700
C181        C  0.34185806  0.69989018  0.09651049     0.88500
C182        C  0.38860188  0.72265898  0.11297445    -0.51700
C183        C  0.39128796  0.72027778  0.15639467     0.11400
C184        C  0.34746156  0.69577457  0.17941049     0.22400
C185        C  0.32064614  0.65344424  0.11440646    -0.52500
C186        C  0.32379808  0.65154906  0.15779890     0.11500
C187        C  0.32029922  0.72066080  0.12138730    -0.52000
C188        C  0.32332110  0.71844804  0.16466102     0.12100
H189        H  0.41678964  0.73900046  0.09225245     0.16600
H190        H  0.34981763  0.69399666  0.21475698     0.02300
H191        H  0.30458605  0.62487058  0.09465557     0.16900
H192        H  0.30412793  0.73576238  0.10620493     0.16700
C193        C  0.35235381  0.68881277  0.97215150     0.88500
C194        C  0.32957627  0.64370164  0.95193377    -0.51700
C195        C  0.32967662  0.64457546  0.90827786     0.11400
C196        C  0.35248054  0.69013666  0.88854080     0.22400
C197        C  0.39773067  0.71220613  0.95194949    -0.52500
C198        C  0.39762890  0.71279818  0.90834478     0.11500
C199        C  0.32961139  0.71158334  0.95233646    -0.52000
C200        C  0.32987799  0.71208186  0.90868350     0.12100
H201        H  0.31476645  0.61384608  0.97049331     0.16600
H202        H  0.35259983  0.69066749  0.85296885     0.02300
H203        H  0.42724428  0.72668149  0.97049917     0.16900
H204        H  0.31447903  0.72599347  0.97012357     0.16700
C205        C  0.35434189  0.68639732  0.02071138    -0.14400
C206        C  0.33801975  0.70284480  0.04849284    -0.29600
H207        H  0.37060111  0.67034290  0.03353643     0.14600
H208        H  0.32157900  0.71896347  0.03711021     0.15200
C209        C  0.69221159  0.36058554  0.04535704    -0.14400
C210        C  0.65919669  0.34278958  0.01761922    -0.29600
H211        H  0.72490520  0.37789975  0.03255641     0.14600
H212        H  0.62619247  0.32504849  0.02900279     0.15200
C213        C  0.31020786  0.73136492  0.88359726    -0.16500
C214        C  0.29375613  0.74716699  0.86218741     0.07600
C215        C  0.27448147  0.76529413  0.83648550     0.09400
C216        C  0.25808715  0.78027112  0.81380042    -0.17400
C217        C  0.59229521  0.30833122  0.87300286    -0.16500
C218        C  0.56142881  0.29289835  0.84976634     0.07600
C219        C  0.52496264  0.27524335  0.82299411     0.09400
C220        C  0.49398368  0.26062742  0.79992545    -0.17400
C221        C  0.33229734  0.08261792  0.74234014    -0.16500
C222        C  0.31438536  0.04393310  0.74639334     0.07600
C223        C  0.29282556  0.99843613  0.74856917     0.09400
C224        C  0.27360744  0.95954165  0.74807169    -0.17400
C225        C  0.25759124  0.50852623  0.80859549    -0.16500
C226        C  0.27367688  0.53862232  0.83278690     0.07600
C227        C  0.29303664  0.57462810  0.86020732     0.09400
C228        C  0.30970829  0.60602860  0.88272179    -0.17400
C229        C  0.33362101  0.28447411  0.73836201    -0.16500
C230        C  0.31599291  0.30519948  0.74142952     0.07600
C231        C  0.29465902  0.32896323  0.74235720     0.09400
C232        C  0.27560784  0.34841769  0.74071765    -0.17400
C233        C  0.77044078  0.26564099  0.81321526    -0.16500
C234        C  0.75445897  0.27948213  0.83742417     0.07600
C235        C  0.73505343  0.29591197  0.86459678     0.09400
C236        C  0.71775623  0.31035245  0.88620868    -0.17400
C237        C  0.07615587  0.35345798  0.74395101    -0.16500
C238        C  0.03741140  0.33567125  0.74714690     0.07600
C239        C  0.99183441  0.31350661  0.74849676     0.09400
C240        C  0.95293708  0.29328681  0.74726324    -0.17400
C241        C  0.76855994  0.53694599  0.81369044    -0.16500
C242        C  0.75295783  0.50608861  0.83765377     0.07600
C243        C  0.73384177  0.46866432  0.86404363     0.09400
C244        C  0.71676007  0.43580246  0.88519108    -0.17400
C245        C  0.94906701  0.69329451  0.74743550    -0.16500
C246        C  0.98779202  0.71126072  0.75053808     0.07600
C247        C  0.03335355  0.73353437  0.75182446     0.09400
C248        C  0.07226668  0.75371986  0.75066558    -0.17400
C249        C  0.77415876  0.26438397  0.25815099    -0.16500
C250        C  0.75965637  0.27968007  0.23349631     0.07600
C251        C  0.74227240  0.29813591  0.20579037     0.09400
C252        C  0.72708945  0.31437046  0.18326297    -0.17400
C253        C  0.81781726  0.22158967  0.47561388    -0.16500
C254        C  0.81747941  0.22273893  0.51416190     0.07600
C255        C  0.81779086  0.22311483  0.55936387     0.09400
C256        C  0.81851214  0.22269707  0.59793743    -0.17400
C257        C  0.50086122  0.26756004  0.25286864    -0.16500
C258        C  0.53193798  0.28222237  0.22950829     0.07600
C259        C  0.56907700  0.29949509  0.20316766     0.09400
C260        C  0.60141605  0.31465557  0.18158820    -0.17400
C261        C  0.39972431  0.22058274  0.58820616    -0.16500
C262        C  0.40169539  0.22250410  0.54965439     0.07600
C263        C  0.40289970  0.22387004  0.50444643     0.09400
C264        C  0.40277895  0.22388364  0.46585129    -0.17400
C265        C  0.30596560  0.61153340  0.18169405    -0.16500
C266        C  0.29130702  0.57923086  0.20352879     0.07600
C267        C  0.27422665  0.54247475  0.23067767     0.09400
C268        C  0.25963934  0.51182918  0.25482554    -0.17400
C269        C  0.21250015  0.41904590  0.47056337    -0.16500
C270        C  0.21311881  0.42019028  0.50909332     0.07600
C271        C  0.21336147  0.42004720  0.55425623     0.09400
C272        C  0.21284775  0.41863996  0.59281044    -0.17400
C273        C  0.07803093  0.35251196  0.32673281    -0.16500
C274        C  0.03908724  0.33353830  0.32601472     0.07600
C275        C  0.99342394  0.30988788  0.32726743     0.09400
C276        C  0.95455070  0.28882710  0.32986902    -0.17400
C277        C  0.28107989  0.35294497  0.31968497    -0.16500
C278        C  0.30084120  0.33428466  0.31642228     0.07600
C279        C  0.32282266  0.31109001  0.31509078     0.09400
C280        C  0.34066475  0.29040706  0.31650056    -0.17400
C281        C  0.53115129  0.78294003  0.25068177    -0.16500
C282        C  0.50085941  0.76950920  0.22666456     0.07600
C283        C  0.46415299  0.75337822  0.20011050     0.09400
C284        C  0.43168903  0.73887493  0.17907094    -0.17400
C285        C  0.75036358  0.08483399  0.32258950    -0.16500
C286        C  0.73069031  0.04602000  0.31936178     0.07600
C287        C  0.70870089  0.00038401  0.31823794     0.09400
C288        C  0.69045085  0.96145469  0.31970157    -0.17400
C289        C  0.25574634  0.78388553  0.26735122    -0.16500
C290        C  0.27152807  0.76889171  0.24425089     0.07600
C291        C  0.28990516  0.75116956  0.21724021     0.09400
C292        C  0.30530236  0.73610957  0.19372752    -0.17400
C293        C  0.20654316  0.82916913  0.47890051    -0.16500
C294        C  0.20729646  0.82871384  0.51750157     0.07600
C295        C  0.20747140  0.82868703  0.56275316     0.09400
C296        C  0.20693165  0.82870796  0.60136461    -0.17400
C297        C  0.27831010  0.96410169  0.32182776    -0.16500
C298        C  0.29912590  0.00286509  0.31773017     0.07600
C299        C  0.32233346  0.04849044  0.31596927     0.09400
C300        C  0.34098398  0.08739267  0.31716779    -0.17400
C301        C  0.53505065  0.78211997  0.80872974    -0.16500
C302        C  0.50492079  0.76682422  0.83330980     0.07600
C303        C  0.46852428  0.74851420  0.86070393     0.09400
C304        C  0.43663334  0.73250942  0.88298057    -0.17400
C305        C  0.62036802  0.82855360  0.59009679    -0.16500
C306        C  0.61819738  0.82723686  0.55155878     0.07600
C307        C  0.61755189  0.82613707  0.50633494     0.09400
C308        C  0.61874174  0.82590604  0.46775078    -0.17400
C309        C  0.69018304  0.96359210  0.73891400    -0.16500
C310        C  0.70815368  0.00235556  0.74192370     0.07600
C311        C  0.73032397  0.04795864  0.74342838     0.09400
C312        C  0.75022694  0.08692998  0.74278319    -0.17400
C313        C  0.68996815  0.76013025  0.73808038    -0.16500
C314        C  0.70789782  0.73956608  0.74026799     0.07600
C315        C  0.72984365  0.71632144  0.74056756     0.09400
C316        C  0.74934055  0.69728168  0.73915494    -0.17400
C317        C  0.76994636  0.53610831  0.25972961    -0.16500
C318        C  0.75626560  0.50622525  0.23531078     0.07600
C319        C  0.74029410  0.47090698  0.20707510     0.09400
C320        C  0.72632052  0.44007951  0.18386058    -0.17400
C321        C  0.94902745  0.70104530  0.32975334    -0.16500
C322        C  0.98792826  0.72068522  0.32928924     0.07600
C323        C  0.03346516  0.74401489  0.33067168     0.09400
C324        C  0.07227406  0.76420463  0.33312412    -0.17400
C325        C  0.81433941  0.62779901  0.47384411    -0.16500
C326        C  0.81390110  0.62601595  0.51238403     0.07600
C327        C  0.81371138  0.62522354  0.55754970     0.09400
C328        C  0.81411932  0.62611736  0.59609030    -0.17400
C329        C  0.68561170  0.75621805  0.31909200    -0.16500
C330        C  0.70306548  0.73520648  0.31711250     0.07600
C331        C  0.72472642  0.71167303  0.31749067     0.09400
C332        C  0.74448844  0.69294870  0.32024505    -0.17400
loop_ 
_geom_bond_atom_site_label_1 
_geom_bond_atom_site_label_2 
_geom_bond_distance 
_geom_bond_site_symmetry_2 
_ccdc_geom_bond_type 
In1           O3   2.247       .  S
In1           O4   2.249       .  S
In1          O12   2.255       .  S
In1           O6   2.254       .  S
In1           O8   2.252       .  S
In1           O9   2.250       .  S
In1          O10   2.249       .  S
In1          O13   2.255       .  S
C2            O8   1.259       .  A
C2           O10   1.258       .  A
C2          C325   1.435       .  S
O3           C11   1.259       .  A
O4           C11   1.259       .  A
C5           O12   1.259       .  A
C5            O6   1.258       .  A
C5          C317   1.439       .  S
C7            O9   1.258       .  A
C7           O13   1.259       .  A
C7          C332   1.438       .  S
C11         C321   1.435       .  S
In14         O16   2.253       .  S
In14         O17   2.251       .  S
In14         O25   2.254       .  S
In14         O19   2.245       .  S
In14         O21   2.255       .  S
In14         O22   2.252       .  S
In14         O23   2.250       .  S
In14         O26   2.255       .  S
C15          O21   1.259       .  A
C15          O23   1.258       .  A
C15         C305   1.438       .  S
O16          C24   1.259       .  A
O17          C24   1.259       .  A
C18          O25   1.259       .  A
C18          O19   1.258       .  A
C18         C301   1.435       .  S
C20          O22   1.258       .  A
C20          O26   1.259       .  A
C20         C313   1.438       .  S
C24         C309   1.437       .  S
In27         O29   2.250       .  S
In27         O30   2.253       .  S
In27         O38   2.258       .  S
In27         O32   2.249       .  S
In27         O34   2.254       .  S
In27         O35   2.249       .  S
In27         O36   2.249       .  S
In27         O39   2.252       .  S
C28          O34   1.259       .  A
C28          O36   1.259       .  A
C28         C293   1.438       .  S
O29          C37   1.258       .  A
O30          C37   1.258       .  A
C31          O38   1.259       .  A
C31          O32   1.258       .  A
C31         C289   1.437       .  S
C33          O35   1.258       .  A
C33          O39   1.259       .  A
C33         C324   1.436       .  S
C37         C297   1.436       .  S
In40         O42   2.253       .  S
In40         O43   2.252       .  S
In40         O51   2.256       .  S
In40         O45   2.251       .  S
In40         O47   2.258       .  S
In40         O48   2.255       .  S
In40         O49   2.249       .  S
In40         O52   2.249       .  S
C41          O47   1.260       .  A
C41          O49   1.258       .  A
C41         C308   1.438       .  S
O42          C50   1.259       .  A
O43          C50   1.259       .  A
C44          O51   1.259       .  A
C44          O45   1.259       .  A
C44         C281   1.438       .  S
C46          O48   1.260       .  A
C46          O52   1.258       .  A
C46         C288   1.438       .  S
C50         C329   1.438       .  S
In53         O55   2.255       .  S
In53         O56   2.250       .  S
In53         O64   2.254       .  S
In53         O58   2.250       .  S
In53         O60   2.250       .  S
In53         O61   2.254       .  S
In53         O62   2.245       .  S
In53         O65   2.257       .  S
C54          O60   1.259       .  A
C54          O62   1.259       .  A
C54         C269   1.435       .  S
O55          C63   1.259       .  A
O56          C63   1.259       .  A
C57          O64   1.258       .  A
C57          O58   1.258       .  A
C57         C268   1.437       .  S
C59          O61   1.258       .  A
C59          O65   1.258       .  A
C59         C277   1.438       .  S
C63         C273   1.439       .  S
In66         O68   2.250       .  S
In66         O69   2.252       .  S
In66         O77   2.253       .  S
In66         O71   2.249       .  S
In66         O73   2.253       .  S
In66         O74   2.254       .  S
In66         O75   2.246       .  S
In66         O78   2.251       .  S
C67          O73   1.260       .  A
C67          O75   1.259       .  A
C67         C264   1.437       .  S
O68          C76   1.259       .  A
O69          C76   1.259       .  A
C70          O77   1.258       .  A
C70          O71   1.258       .  A
C70         C257   1.436       .  S
C72          O74   1.259       .  A
C72          O78   1.258       .  A
C72         C300   1.437       .  S
C76         C280   1.438       .  S
In79         O81   2.257       .  S
In79         O82   2.251       .  S
In79         O90   2.252       .  S
In79         O84   2.249       .  S
In79         O86   2.258       .  S
In79         O87   2.253       .  S
In79         O88   2.248       .  S
In79         O91   2.256       .  S
C80          O86   1.259       .  A
C80          O88   1.258       .  A
C80         C253   1.437       .  S
O81          C89   1.259       .  A
O82          C89   1.259       .  A
C83          O90   1.259       .  A
C83          O84   1.259       .  A
C83         C249   1.437       .  S
C85          O87   1.259       .  A
C85          O91   1.259       .  A
C85         C276   1.439       .  S
C89         C285   1.438       .  S
In92         O94   2.253       .  S
In92         O95   2.250       .  S
In92        O103   2.259       .  S
In92         O97   2.248       .  S
In92         O99   2.255       .  S
In92        O100   2.250       .  S
In92        O101   2.244       .  S
In92        O104   2.250       .  S
C93          O99   1.259       .  A
C93         O101   1.258       .  A
C93         C328   1.435       .  S
O94         C102   1.259       .  A
O95         C102   1.259       .  A
C96         O103   1.259       .  A
C96          O97   1.258       .  A
C96         C241   1.438       .  S
C98         O100   1.259       .  A
C98         O104   1.259       .  A
C98         C245   1.436       .  S
C102        C316   1.438       .  S
In105       O107   2.253       .  S
In105       O108   2.250       .  S
In105       O116   2.251       .  S
In105       O110   2.248       .  S
In105       O112   2.251       .  S
In105       O113   2.249       .  S
In105       O114   2.245       .  S
In105       O117   2.251       .  S
C106        O112   1.260       .  A
C106        O114   1.259       .  A
C106        C256   1.436       .  S
O107        C115   1.258       .  A
O108        C115   1.259       .  A
C109        O116   1.258       .  A
C109        O110   1.258       .  A
C109        C233   1.434       .  S
C111        O113   1.259       .  A
C111        O117   1.259       .  A
C111        C312   1.437       .  S
C115        C240   1.437       .  S
In118       O120   2.252       .  S
In118       O121   2.246       .  S
In118       O129   2.254       .  S
In118       O123   2.251       .  S
In118       O125   2.254       .  S
In118       O126   2.250       .  S
In118       O127   2.247       .  S
In118       O130   2.252       .  S
C119        O125   1.259       .  A
C119        O127   1.258       .  A
C119        C272   1.435       .  S
O120        C128   1.259       .  A
O121        C128   1.258       .  A
C122        O129   1.259       .  A
C122        O123   1.259       .  A
C122        C225   1.438       .  S
C124        O126   1.259       .  A
C124        O130   1.259       .  A
C124        C237   1.437       .  S
C128        C232   1.436       .  S
In131       O133   2.247       .  S
In131       O134   2.250       .  S
In131       O142   2.254       .  S
In131       O136   2.247       .  S
In131       O138   2.250       .  S
In131       O139   2.249       .  S
In131       O140   2.250       .  S
In131       O143   2.250       .  S
C132        O138   1.259       .  A
C132        O140   1.259       .  A
C132        C261   1.437       .  S
O133        C141   1.258       .  A
O134        C141   1.258       .  A
C135        O142   1.258       .  A
C135        O136   1.257       .  A
C135        C220   1.434       .  S
C137        O139   1.258       .  A
C137        O143   1.259       .  A
C137        C229   1.436       .  S
C141        C221   1.434       .  S
In144       O146   2.254       .  S
In144       O147   2.252       .  S
In144       O155   2.263       .  S
In144       O149   2.252       .  S
In144       O151   2.252       .  S
In144       O152   2.246       .  S
In144       O153   2.252       .  S
In144       O156   2.248       .  S
C145        O151   1.259       .  A
C145        O153   1.259       .  A
C145        C296   1.438       .  S
O146        C154   1.258       .  A
O147        C154   1.258       .  A
C148        O155   1.259       .  A
C148        O149   1.257       .  A
C148        C216   1.440       .  S
C150        O152   1.259       .  A
C150        O156   1.259       .  A
C150        C224   1.434       .  S
C154        C248   1.437       .  S
C157        C158   1.550       .  S
C157        C163   1.538       .  S
C157        C161   1.541       .  S
C157        C209   1.521       .  S
C158        H165   1.084       .  S
C158        C159   1.363       .  D
C159        C160   1.531       .  S
C159        C260   1.442       .  S
C160        C164   1.534       .  S
C160        C162   1.533       .  S
C160        H166   1.112       .  S
C161        H167   1.086       .  S
C161        C162   1.365       .  D
C162        C320   1.444       .  S
C163        H168   1.086       .  S
C163        C164   1.363       .  D
C164        C252   1.442       .  S
C169        C170   1.540       .  S
C169        C175   1.539       .  S
C169        C173   1.538       .  S
C169        C210   1.511   1_556  S
C170        H177   1.086       .  S
C170        C171   1.365       .  D
C171        C172   1.535       .  S
C171        C244   1.444       .  S
C172        C176   1.534       .  S
C172        C174   1.533       .  S
C172        H178   1.112       .  S
C173        H179   1.086       .  S
C173        C174   1.361       .  D
C174        C217   1.440       .  S
C175        H180   1.086       .  S
C175        C176   1.365       .  D
C176        C236   1.441       .  S
C181        C182   1.541       .  S
C181        C187   1.540       .  S
C181        C185   1.540       .  S
C181        C206   1.515       .  S
C182        H189   1.086       .  S
C182        C183   1.366       .  D
C183        C184   1.535       .  S
C183        C284   1.444       .  S
C184        C188   1.534       .  S
C184        C186   1.535       .  S
C184        H190   1.112       .  S
C185        H191   1.086       .  S
C185        C186   1.365       .  D
C186        C265   1.442       .  S
C187        H192   1.086       .  S
C187        C188   1.362       .  D
C188        C292   1.443       .  S
C193        C194   1.540       .  S
C193        C199   1.550       .  S
C193        C197   1.538       .  S
C193        C205   1.523   1_556  S
C194        H201   1.086       .  S
C194        C195   1.365       .  D
C195        C196   1.533       .  S
C195        C228   1.444       .  S
C196        C200   1.533       .  S
C196        C198   1.534       .  S
C196        H202   1.112       .  S
C197        H203   1.086       .  S
C197        C198   1.363       .  D
C198        C304   1.442       .  S
C199        H204   1.081       .  S
C199        C200   1.365       .  D
C200        C213   1.446       .  S
C205        H207   1.086       .  S
C205        C206   1.347       .  D
C206        H208   1.077       .  S
C209        H211   1.087       .  S
C209        C210   1.346       .  D
C210        H212   1.081       .  S
C213        C214   1.208       .  T
C214        C215   1.416       .  S
C215        C216   1.208       .  T
C217        C218   1.205       .  T
C218        C219   1.411       .  S
C219        C220   1.205       .  T
C221        C222   1.205       .  T
C222        C223   1.411   1_545  S
C223        C224   1.205       .  T
C225        C226   1.207       .  T
C226        C227   1.415       .  S
C227        C228   1.207       .  T
C229        C230   1.206       .  T
C230        C231   1.412       .  S
C231        C232   1.206       .  T
C233        C234   1.205       .  T
C234        C235   1.411       .  S
C235        C236   1.205       .  T
C237        C238   1.206       .  T
C238        C239   1.413   1_455  S
C239        C240   1.206       .  T
C241        C242   1.207       .  T
C242        C243   1.415       .  S
C243        C244   1.207       .  T
C245        C246   1.206       .  T
C246        C247   1.413   1_655  S
C247        C248   1.206       .  T
C249        C250   1.206       .  T
C250        C251   1.413       .  S
C251        C252   1.206       .  T
C253        C254   1.206       .  T
C254        C255   1.413       .  S
C255        C256   1.206       .  T
C257        C258   1.206       .  T
C258        C259   1.413       .  S
C259        C260   1.206       .  T
C261        C262   1.206       .  T
C262        C263   1.413       .  S
C263        C264   1.207       .  T
C265        C266   1.206       .  T
C266        C267   1.413       .  S
C267        C268   1.206       .  T
C269        C270   1.205       .  T
C270        C271   1.412       .  S
C271        C272   1.206       .  T
C273        C274   1.208       .  T
C274        C275   1.416   1_455  S
C275        C276   1.208       .  T
C277        C278   1.207       .  T
C278        C279   1.415       .  S
C279        C280   1.207       .  T
C281        C282   1.207       .  T
C282        C283   1.415       .  S
C283        C284   1.207       .  T
C285        C286   1.207       .  T
C286        C287   1.415       .  S
C287        C288   1.207   1_545  T
C289        C290   1.207       .  T
C290        C291   1.414       .  S
C291        C292   1.207       .  T
C293        C294   1.207       .  T
C294        C295   1.415       .  S
C295        C296   1.207       .  T
C297        C298   1.206   1_565  T
C298        C299   1.413       .  S
C299        C300   1.206       .  T
C301        C302   1.206       .  T
C302        C303   1.412       .  S
C303        C304   1.206       .  T
C305        C306   1.207       .  T
C306        C307   1.415       .  S
C307        C308   1.207       .  T
C309        C310   1.207   1_565  T
C310        C311   1.414       .  S
C311        C312   1.207       .  T
C313        C314   1.207       .  T
C314        C315   1.414       .  S
C315        C316   1.207       .  T
C317        C318   1.208       .  T
C318        C319   1.415       .  S
C319        C320   1.207       .  T
C321        C322   1.206       .  T
C322        C323   1.412   1_655  S
C323        C324   1.206       .  T
C325        C326   1.206       .  T
C326        C327   1.412       .  S
C327        C328   1.205       .  T
C329        C330   1.207       .  T
C330        C331   1.415       .  S
C331        C332   1.207       .  T
