geometry optimzed in LAMMPS
_audit_creation_date              2020-11-30 
_audit_creation_method            'lammps2cif' 
_symmetry_space_group_name_H-M    'P1' 
_symmetry_Int_Tables_number       1 
_symmetry_cell_setting            triclinic 
loop_ 
_symmetry_equiv_pos_as_xyz 
  x,y,z 
_cell_length_a                    21.66867468 
_cell_length_b                    21.955397477199348 
_cell_length_c                    28.40595113942201 
_cell_angle_alpha                 86.65336767056817 
_cell_angle_beta                  92.36246302294552 
_cell_angle_gamma                 119.66191506503566 
loop_ 
_atom_site_label 
_atom_site_type_symbol 
_atom_site_fract_x 
_atom_site_fract_y 
_atom_site_fract_z 
_atom_site_charge 
O1          O  0.56315236  0.57340421  0.04748411    -0.70800
O2          O  0.40560136  0.48260882  0.28960051    -0.70800
O3          O  0.43988486  0.45020098  0.04983530    -0.70900
O4          O  0.52676488  0.60542295  0.28796251    -0.70900
O5          O  0.58707241  0.55014608  0.27492224    -0.70900
O6          O  0.49949420  0.39126002  0.05389117    -0.70800
O7          O  0.46495273  0.42605340  0.27751920    -0.70800
O8          O  0.62148938  0.51325778  0.05425531    -0.70900
Ni9        Ni  0.49951362  0.51295727  0.00043414     1.25400
Ni10       Ni  0.53754388  0.47923999  0.32309078     1.25400
C11         C  0.61112616  0.56227862  0.06726286     0.91400
C12         C  0.41357840  0.43807479  0.26734459     0.91300
C13         C  0.45073398  0.40177280  0.06873977     0.91300
C14         C  0.57282656  0.59951497  0.26474120     0.91500
O15         O  0.03903157  0.58851996  0.27625796    -0.70800
O16         O  0.07378427  0.49242788  0.05271648    -0.70800
O17         O  0.03456835  0.46330955  0.27674395    -0.70900
O18         O  0.03883906  0.59439851  0.04489264    -0.70900
O19         O  0.92393182  0.51349440  0.04623342    -0.70900
O20         O  0.91866321  0.40890214  0.29187693    -0.70800
O21         O  0.95887596  0.41149261  0.05348592    -0.70800
O22         O  0.92318490  0.53430760  0.29134981    -0.70900
Ni23       Ni  0.05620358  0.53169896  0.32277577     1.25400
Ni24       Ni  0.93699376  0.45821826  0.00200802     1.25400
C25         C  0.97683991  0.58020564  0.26775846     0.91400
C26         C  0.02197635  0.43642086  0.07063423     0.91300
C27         C  0.97088630  0.41447018  0.26883532     0.91300
C28         C  0.97616887  0.57047022  0.06082474     0.91500
O29         O  0.53785729  0.96305159  0.28549628    -0.70800
O30         O  0.40933460  0.93109819  0.03593043    -0.70800
O31         O  0.41256713  0.96163057  0.28185961    -0.70900
O32         O  0.53363775  0.93107531  0.03721359    -0.70900
O33         O  0.59005420  0.04519499  0.05128733    -0.70900
O34         O  0.46610406  0.07460535  0.29896302    -0.70800
O35         O  0.46581189  0.04597467  0.04768978    -0.70800
O36         O  0.59170686  0.07717252  0.29937486    -0.70900
Ni37       Ni  0.46500027  0.94068436  0.33006946     1.25400
Ni38       Ni  0.53735898  0.06457126  0.00256995     1.25400
C39         C  0.58699151  0.02626093  0.27669021     0.91400
C40         C  0.41586081  0.98342278  0.05762294     0.91300
C41         C  0.42202212  0.02384032  0.27416799     0.91300
C42         C  0.57925250  0.98293817  0.06079219     0.91500
C43         C  0.01081213  0.70342685  0.15539663     0.01100
C44         C  0.99757511  0.30690576  0.17636269     0.01100
C45         C  0.31048661  0.31146638  0.16727326     0.01100
C46         C  0.31573927  0.00960622  0.15735887     0.01100
C47         C  0.68956202  0.00245937  0.17716131     0.01100
C48         C  0.70069472  0.70245938  0.16176126     0.01100
C49         C  0.70434118  0.77098636  0.16351656    -0.14900
C50         C  0.70515814  0.82597081  0.16591168     0.09200
C51         C  0.70322448  0.88871314  0.16947946     0.11000
C52         C  0.69864839  0.94079478  0.17274821    -0.15700
C53         C  0.29869845  0.23993871  0.16447821    -0.14900
C54         C  0.29622161  0.18410858  0.16364229     0.09200
C55         C  0.30002283  0.12214923  0.16309795     0.11000
C56         C  0.30660123  0.07103720  0.16171500    -0.15700
C57         C  0.06111472  0.29964085  0.17245530    -0.14900
C58         C  0.11625143  0.29893335  0.17103409     0.09200
C59         C  0.18276920  0.30208181  0.17040369     0.11000
C60         C  0.24029262  0.30622987  0.16964996    -0.15700
C61         C  0.93599123  0.23639422  0.18448626    -0.14900
C62         C  0.88263674  0.17999809  0.18686504     0.09200
C63         C  0.81782769  0.11618183  0.18571925     0.11000
C64         C  0.76085418  0.06372701  0.18253782    -0.15700
C65         C  0.24447974  0.94860091  0.15347819    -0.14900
C66         C  0.18761275  0.89594404  0.15354141     0.09200
C67         C  0.12374584  0.83171008  0.15545594     0.11000
C68         C  0.07148227  0.77470657  0.15660144    -0.15700
C69         C  0.77359171  0.71516078  0.15779750    -0.14900
C70         C  0.83025083  0.71788075  0.15573477     0.09200
C71         C  0.89335529  0.71460272  0.15468180     0.11000
C72         C  0.94605645  0.70934386  0.15476638    -0.15700
C73         C  0.61869666  0.96958749  0.09986891    -0.12800
C74         C  0.65270872  0.01573017  0.13403574    -0.28000
H75         H  0.61563749  0.91868632  0.10176873     0.16200
H76         H  0.65077736  0.06437722  0.13247029     0.16800
C77         C  0.64564544  0.99053697  0.22049685    -0.12800
C78         C  0.63713947  0.04132670  0.23839357    -0.28000
H79         H  0.61837075  0.93806707  0.23714468     0.16200
H80         H  0.66608149  0.09471989  0.22361074     0.16800
C81         C  0.38304684  0.03876029  0.23576349    -0.12800
C82         C  0.35295762  0.99573105  0.19976003    -0.28000
H83         H  0.38328208  0.08829119  0.23592631     0.16200
H84         H  0.35706230  0.94828680  0.19977925     0.16800
C85         C  0.36667646  0.96994971  0.09612402    -0.12800
C86         C  0.35846692  0.02105838  0.11352490    -0.28000
H87         H  0.33793074  0.91693967  0.11154201     0.16200
H88         H  0.38542631  0.07319528  0.09640343     0.16800
C89         C  0.01495353  0.67102437  0.11092627    -0.12800
C90         C  0.96453803  0.60681597  0.09851990    -0.28000
H91         H  0.06237883  0.69922358  0.08953682     0.16200
H92         H  0.91590544  0.57867867  0.11858996     0.16800
C93         C  0.01741983  0.66124049  0.19776786    -0.12800
C94         C  0.96633293  0.62311161  0.22960031    -0.28000
H95         H  0.06707044  0.66008917  0.20089380     0.16200
H96         H  0.91491641  0.62032986  0.22647973     0.16800
C97         C  0.95698532  0.36458147  0.23193410    -0.12800
C98         C  0.00826253  0.35288361  0.21719171    -0.28000
H99         H  0.90395519  0.33705824  0.21647554     0.16200
H100        H  0.06012078  0.37868787  0.23461566     0.16800
C101        C  0.03554010  0.40197965  0.11268226    -0.12800
C102        C  0.98559011  0.33955999  0.13085254    -0.27100
H103        H  0.08726534  0.42929465  0.12997463     0.16200
H104        H  0.93445718  0.31201112  0.11272983     0.16800
C105        C  0.65701863  0.66358106  0.11924429    -0.12800
C106        C  0.65396630  0.60375606  0.10704654    -0.28000
H107        H  0.62832010  0.68467342  0.09809146     0.16200
H108        H  0.68436874  0.58397212  0.12749543     0.16800
C109        C  0.66865732  0.65868260  0.20672230    -0.12800
C110        C  0.60728571  0.64844072  0.22420149    -0.28000
H111        H  0.69581133  0.63353918  0.22507050     0.16200
H112        H  0.58093005  0.67549282  0.20767955     0.16800
C113        C  0.35472901  0.34316502  0.21127867    -0.12800
C114        C  0.36458966  0.40347447  0.22776679    -0.28000
H115        H  0.38058619  0.31674680  0.22969394     0.16200
H116        H  0.33670680  0.42896508  0.21114811     0.16800
C117        C  0.40958501  0.35868979  0.10973068    -0.12800
C118        C  0.34918368  0.35515011  0.12360847    -0.28000
H119        H  0.43014402  0.32858565  0.12962685     0.16200
H120        H  0.32732859  0.38350086  0.10289814     0.16800
O121        O  0.54370330  0.59012570  0.38286847    -0.70800
O122        O  0.40983533  0.46768301  0.61844623    -0.70800
O123        O  0.42148729  0.46534467  0.38436066    -0.70900
O124        O  0.54278131  0.57701334  0.61787103    -0.70900
O125        O  0.58739855  0.50497398  0.61463745    -0.70900
O126        O  0.48405209  0.41208638  0.37233291    -0.70800
O127        O  0.45448148  0.39636731  0.61133545    -0.70800
O128        O  0.60569021  0.53681080  0.36930475    -0.70900
Ni129      Ni  0.47225959  0.53780016  0.33683027     1.25400
Ni130      Ni  0.52440417  0.44116035  0.66079693     1.25400
C131        C  0.59721791  0.58111520  0.39163274     0.91400
C132        C  0.41106922  0.41822661  0.59791747     0.91300
C133        C  0.43617966  0.41616768  0.39460757     0.91300
C134        C  0.58500397  0.55963247  0.59973787     0.91500
O135        O  0.03770311  0.58125894  0.61659637    -0.70800
O136        O  0.06548320  0.47106089  0.36999063    -0.70800
O137        O  0.03382444  0.45650510  0.61767829    -0.70900
O138        O  0.06957642  0.59574210  0.37049373    -0.70900
O139        O  0.95356994  0.54169810  0.38521722    -0.70900
O140        O  0.91855700  0.40241839  0.63468283    -0.70800
O141        O  0.94998325  0.41677631  0.38632516    -0.70800
O142        O  0.92294937  0.52727226  0.63500830    -0.70900
Ni143      Ni  0.05754197  0.52569680  0.66311953     1.25400
Ni144      Ni  0.93214899  0.47339841  0.33925065     1.25400
C145        C  0.97490318  0.57245740  0.60998334     0.91400
C146        C  0.01255884  0.42535910  0.39403543     0.91300
C147        C  0.96979905  0.40812408  0.61039314     0.91300
C148        C  0.01734557  0.58974752  0.39377614     0.91500
O149        O  0.53232005  0.95912977  0.61298986    -0.70800
O150        O  0.39630632  0.92583256  0.37605054    -0.70800
O151        O  0.40777718  0.96008931  0.61025943    -0.70900
O152        O  0.52116592  0.92839224  0.37952013    -0.70900
O153        O  0.57849474  0.04257590  0.39359967    -0.70900
O154        O  0.46641574  0.07439290  0.62382034    -0.70800
O155        O  0.45242857  0.03920451  0.39239380    -0.70800
O156        O  0.58973325  0.07331419  0.62707633    -0.70900
Ni157      Ni  0.46031027  0.93945208  0.65826496     1.25400
Ni158      Ni  0.52425997  0.06244117  0.34665769     1.25400
C159        C  0.58312284  0.02176948  0.60440166     0.91400
C160        C  0.40210579  0.97606890  0.39991133     0.91300
C161        C  0.42019357  0.02279258  0.60031940     0.91300
C162        C  0.56663762  0.98000920  0.40323453     0.91500
C163        C  0.99008620  0.68494394  0.49480998     0.01100
C164        C  0.99623806  0.31269681  0.50947843     0.01100
C165        C  0.30230709  0.30472693  0.49347801     0.01100
C166        C  0.29071265  0.99572398  0.49473083     0.01100
C167        C  0.69486673  0.00438487  0.50845425     0.01100
C168        C  0.68518597  0.69783406  0.49991367     0.01100
C169        C  0.70066234  0.77063882  0.49595667    -0.14900
C170        C  0.70883425  0.82886078  0.49562375     0.09200
C171        C  0.71141049  0.89358938  0.49834301     0.11000
C172        C  0.70715111  0.94546883  0.50245374    -0.15700
C173        C  0.28819633  0.23344221  0.48594509    -0.14900
C174        C  0.28002058  0.17506692  0.48720986     0.09200
C175        C  0.27622226  0.10930255  0.49297962     0.11000
C176        C  0.27910878  0.05592648  0.49666332    -0.15700
C177        C  0.06013396  0.30614419  0.50408379    -0.14900
C178        C  0.11362367  0.30227131  0.50271565     0.09200
C179        C  0.17751934  0.30004774  0.50215208     0.11000
C180        C  0.23323328  0.30054020  0.50018919    -0.15700
C181        C  0.93582071  0.24147962  0.51553008    -0.14900
C182        C  0.88377097  0.18443655  0.51881582     0.09200
C183        C  0.82030949  0.11973757  0.51962470     0.11000
C184        C  0.76430827  0.06642621  0.51679641    -0.15700
C185        C  0.22115336  0.93303347  0.48731280    -0.14900
C186        C  0.16552509  0.87905069  0.48494834     0.09200
C187        C  0.10252757  0.81367182  0.48580835     0.11000
C188        C  0.05064923  0.75633113  0.48888832    -0.15700
C189        C  0.75385697  0.69872518  0.50164433    -0.14900
C190        C  0.80918859  0.69802887  0.50282767     0.09200
C191        C  0.87285336  0.69531777  0.50275969     0.11000
C192        C  0.92624424  0.69140674  0.50070977    -0.15700
C193        C  0.60310733  0.96611937  0.44366931    -0.12800
C194        C  0.66149285  0.01759859  0.46392002    -0.28000
H195        H  0.58049149  0.91248001  0.45796022     0.16200
H196        H  0.68510114  0.07060763  0.44817121     0.16800
C197        C  0.64635236  0.98803380  0.54997878    -0.12800
C198        C  0.63366811  0.03682042  0.56652200    -0.28000
H199        H  0.62055536  0.93541567  0.56641975     0.16200
H200        H  0.66160528  0.09020981  0.55157742     0.16800
C201        C  0.38332346  0.03654706  0.55973157    -0.12800
C202        C  0.32381373  0.98498642  0.54042083    -0.28000
H203        H  0.40683559  0.08962044  0.54431184     0.16200
H204        H  0.29949728  0.93277579  0.55748629     0.16800
C205        C  0.35111537  0.95999040  0.43764668    -0.12800
C206        C  0.33930177  0.00949477  0.45381159    -0.28000
H207        H  0.32260354  0.90654627  0.45240428     0.16200
H208        H  0.36605023  0.06183137  0.43689921     0.16800
C209        C  0.97933283  0.64403183  0.45115103    -0.12800
C210        C  0.03150934  0.63727317  0.43232333    -0.28000
H211        H  0.92649669  0.61727010  0.43514417     0.16200
H212        H  0.08528309  0.66566275  0.44648673     0.16800
C213        C  0.00545947  0.64784446  0.53687849    -0.12800
C214        C  0.96041873  0.61342556  0.57262435    -0.28000
H215        H  0.05476938  0.64620002  0.53626837     0.16200
H216        H  0.90912351  0.61078480  0.57314357     0.16800
C217        C  0.95463364  0.35998421  0.57215191    -0.12800
C218        C  0.00682730  0.35361233  0.55299972    -0.28000
H219        H  0.90059579  0.33118953  0.55846184     0.16200
H220        H  0.05984993  0.38082074  0.56873659     0.16800
C221        C  0.02598547  0.38364229  0.43145815    -0.12800
C222        C  0.98091568  0.34966729  0.46723660    -0.27100
H223        H  0.07705747  0.38575970  0.43110252     0.16200
H224        H  0.93182400  0.35175056  0.46777642     0.16800
C225        C  0.63757343  0.65974306  0.45837679    -0.12800
C226        C  0.64955167  0.62117900  0.42858406    -0.28000
H227        H  0.58842544  0.66171536  0.45435130     0.16200
H228        H  0.69664352  0.61576624  0.43259314     0.16800
C229        C  0.64488933  0.66407296  0.54508707    -0.12800
C230        C  0.62948252  0.59886364  0.55912650    -0.28000
H231        H  0.62674746  0.69213374  0.56589606     0.16200
H232        H  0.64973749  0.57195196  0.53907501     0.16800
C233        C  0.34898304  0.33026199  0.53737151    -0.12800
C234        C  0.36318072  0.38992085  0.55691653    -0.28000
H235        H  0.37184013  0.29953388  0.55346061     0.16200
H236        H  0.33878032  0.41976923  0.54194164     0.16800
C237        C  0.39926334  0.36409737  0.43345817    -0.12800
C238        C  0.33807497  0.35394489  0.45110748    -0.28000
H239        H  0.42301668  0.33351373  0.44812998     0.16200
H240        H  0.31375131  0.38324712  0.43485933     0.16800
O241        O  0.54601533  0.56527091  0.71337323    -0.70800
O242        O  0.44025837  0.44853364  0.95398503    -0.70800
O243        O  0.41467561  0.45193548  0.71470678    -0.70900
O244        O  0.56357051  0.57120531  0.95138532    -0.70900
O245        O  0.62602319  0.51520846  0.95881165    -0.70900
O246        O  0.45864004  0.38026198  0.70675424    -0.70800
O247        O  0.50303663  0.39280804  0.95768350    -0.70800
O248        O  0.59047086  0.49313989  0.71080145    -0.70900
Ni249      Ni  0.47661196  0.51793709  0.66638464     1.25400
Ni250      Ni  0.56452949  0.45099622  0.00631152     1.25400
C251        C  0.58990416  0.54555119  0.72839822     0.91400
C252        C  0.45279883  0.40158656  0.93946434     0.91300
C253        C  0.41673690  0.39546534  0.72671792     0.91300
C254        C  0.61468963  0.56243743  0.93866771     0.91500
O255        O  0.03837695  0.59169945  0.94960594    -0.70800
O256        O  0.06865581  0.46593393  0.71062386    -0.70800
O257        O  0.07313071  0.48970110  0.95676663    -0.70900
O258        O  0.07359273  0.59119401  0.71017213    -0.70900
O259        O  0.95848875  0.53733585  0.72767782    -0.70900
O260        O  0.95828474  0.40854642  0.95809075    -0.70800
O261        O  0.95365562  0.41191931  0.72829323    -0.70800
O262        O  0.92346067  0.51078727  0.95021168    -0.70900
Ni263      Ni  0.06012818  0.54487894  0.00098893     1.25400
Ni264      Ni  0.93432413  0.46768963  0.68211779     1.25400
C265        C  0.97535643  0.56687686  0.93239730     0.91400
C266        C  0.01625353  0.42058213  0.73535203     0.91300
C267        C  0.02100388  0.43266762  0.94218082     0.91300
C268        C  0.02262452  0.58622804  0.73429098     0.91500
O269        O  0.54448825  0.96009043  0.94269962    -0.70800
O270        O  0.39354182  0.92847774  0.70492473    -0.70800
O271        O  0.42046771  0.96157804  0.94108968    -0.70900
O272        O  0.51597733  0.92623368  0.70733892    -0.70900
O273        O  0.57533719  0.04038264  0.72149468    -0.70900
O274        O  0.48115750  0.07636539  0.95305410    -0.70800
O275        O  0.45174763  0.04278909  0.71855236    -0.70800
O276        O  0.60403726  0.07445194  0.95613233    -0.70900
Ni277      Ni  0.47484845  0.94188334  0.98876080     1.25400
Ni278      Ni  0.52286802  0.06177297  0.67329921     1.25400
C279        C  0.59570252  0.02204739  0.93347354     0.91400
C280        C  0.40111245  0.98046771  0.72772341     0.91300
C281        C  0.43387222  0.02453431  0.93041111     0.91300
C282        C  0.56212573  0.97722809  0.73108788     0.91500
C283        C  0.00087164  0.69663603  0.82665941     0.01100
C284        C  0.99011116  0.30027974  0.84803664     0.01100
C285        C  0.30822152  0.31627213  0.84239330     0.01100
C286        C  0.30124978  0.00606727  0.82837533     0.01100
C287        C  0.69270114  0.99215139  0.83322405     0.01100
C288        C  0.68458574  0.68188405  0.82432625     0.01100
C289        C  0.69023618  0.75145040  0.82391245    -0.14900
C290        C  0.69437039  0.80827402  0.82368463     0.09200
C291        C  0.69742676  0.87385338  0.82449572     0.11000
C292        C  0.69732792  0.92841118  0.82701678    -0.15700
C293        C  0.30007281  0.24512809  0.84181416    -0.14900
C294        C  0.29540104  0.18800220  0.84085435     0.09200
C295        C  0.29289284  0.12258840  0.83845880     0.11000
C296        C  0.29411218  0.06858728  0.83496745    -0.15700
C297        C  0.05759942  0.29957379  0.84783104    -0.14900
C298        C  0.11325714  0.30012377  0.84654750     0.09200
C299        C  0.17929838  0.30305710  0.84429044     0.11000
C300        C  0.23688148  0.30780294  0.84278600    -0.15700
C301        C  0.93281182  0.22734894  0.84684547    -0.14900
C302        C  0.88325533  0.16872725  0.84579376     0.09200
C303        C  0.82149239  0.10297572  0.84355821     0.11000
C304        C  0.76507324  0.05039348  0.84002521    -0.15700
C305        C  0.22984839  0.94572699  0.82110063    -0.14900
C306        C  0.17468392  0.89161933  0.81709009     0.09200
C307        C  0.11326642  0.82504954  0.81564843     0.11000
C308        C  0.06222670  0.76703975  0.81815882    -0.15700
C309        C  0.75737405  0.69332188  0.82579267    -0.14900
C310        C  0.81628531  0.70104716  0.82805834     0.09200
C311        C  0.88330887  0.70583731  0.83057987     0.11000
C312        C  0.93823288  0.70486149  0.83068891    -0.15700
C313        C  0.59744537  0.96104849  0.77131294    -0.12800
C314        C  0.65967141  0.00901931  0.78979305    -0.28000
H315        H  0.57136104  0.90762355  0.78627493     0.16200
H316        H  0.68688373  0.06154868  0.77325076     0.16800
C317        C  0.64852915  0.98127768  0.87625009    -0.12800
C318        C  0.64409916  0.03410517  0.89471241    -0.28000
H319        H  0.61870598  0.92868766  0.89236550     0.16200
H320        H  0.67562234  0.08735401  0.88018025     0.16800
C321        C  0.39730465  0.03942530  0.89021964    -0.12800
C322        C  0.33540069  0.99042769  0.87183735    -0.28000
H323        H  0.42231277  0.09270538  0.87506578     0.16200
H324        H  0.30931471  0.93792629  0.88842707     0.16800
C325        C  0.35256661  0.96724197  0.76666053    -0.12800
C326        C  0.34632781  0.01889369  0.78540908    -0.28000
H327        H  0.32216728  0.91375335  0.78105283     0.16200
H328        H  0.37497478  0.07172805  0.76950121     0.16800
C329        C  0.98864611  0.65018980  0.78590375    -0.12800
C330        C  0.03862703  0.63698033  0.77089105    -0.28000
H331        H  0.93646365  0.62495171  0.76884359     0.16200
H332        H  0.09202956  0.66386300  0.78584684     0.16800
C333        C  0.01262239  0.66380243  0.87212971    -0.12800
C334        C  0.96214981  0.60166771  0.89040926    -0.28000
H335        H  0.06393857  0.69094241  0.89007859     0.16200
H336        H  0.91030697  0.57481886  0.87320125     0.16800
C337        C  0.03312571  0.39679795  0.90445380    -0.12800
C338        C  0.98442270  0.33161648  0.89259132    -0.28000
H339        H  0.08118525  0.42613099  0.88393211     0.16200
H340        H  0.93760102  0.30193137  0.91433222     0.16800
C341        C  0.02916029  0.37903478  0.77314241    -0.12800
C342        C  0.97981336  0.34042191  0.80584875    -0.27100
H343        H  0.08134072  0.38347668  0.77522423     0.16200
H344        H  0.92901641  0.33933729  0.80349705     0.16800
C345        C  0.64674426  0.64579460  0.77975528    -0.12800
C346        C  0.63806004  0.58322707  0.76783044    -0.28000
H347        H  0.62313186  0.67079065  0.75710057     0.16200
H348        H  0.66329242  0.55832886  0.78871907     0.16800
C349        C  0.64084735  0.63927988  0.86679729    -0.12800
C350        C  0.66132205  0.60608375  0.89981832    -0.28000
H351        H  0.58830892  0.63376235  0.86932470     0.16200
H352        H  0.71147005  0.60680950  0.89693868     0.16800
C353        C  0.34748146  0.35183167  0.88686970    -0.12800
C354        C  0.41116212  0.35906238  0.89960857    -0.28000
H355        H  0.32408368  0.37401931  0.90874933     0.16200
H356        H  0.43409838  0.33477641  0.87942769     0.16800
C357        C  0.37240271  0.34580538  0.76448245    -0.12800
C358        C  0.34640605  0.36420499  0.79975905    -0.28000
H359        H  0.36702241  0.29394902  0.76519524     0.16200
H360        H  0.35446710  0.41725921  0.79885793     0.16800
loop_ 
_geom_bond_atom_site_label_1 
_geom_bond_atom_site_label_2 
_geom_bond_distance 
_geom_bond_site_symmetry_2 
_ccdc_geom_bond_type 
O1           Ni9   1.922       .  S
O1           C11   1.282       .  A
O2         Ni129   1.911       .  S
O2           C12   1.278       .  A
O3           Ni9   1.923       .  S
O3           C13   1.282       .  A
O4         Ni129   1.920       .  S
O4           C14   1.281       .  A
O5          Ni10   1.915       .  S
O5           C14   1.281       .  A
O6         Ni250   1.911       .  S
O6           C13   1.279       .  A
O7          Ni10   1.925       .  S
O7           C12   1.284       .  A
O8         Ni250   1.912       .  S
O8           C11   1.280       .  A
Ni9         O242   1.916   1_554  S
Ni9         O244   1.923   1_554  S
Ni9        Ni250   2.390       .  S
Ni10        O126   1.917       .  S
Ni10        O128   1.920       .  S
Ni10       Ni129   2.390       .  S
C11         C106   1.471       .  S
C12         C114   1.473       .  S
C13         C117   1.472       .  S
C14         C110   1.473       .  S
O15         Ni23   1.915       .  S
O15          C25   1.282   1_455  A
O16        Ni263   1.917       .  S
O16          C26   1.280       .  A
O17         Ni23   1.915       .  S
O17          C27   1.282   1_455  A
O18        Ni263   1.911       .  S
O18          C28   1.281   1_455  A
O19         Ni24   1.918       .  S
O19          C28   1.280       .  A
O20        Ni144   1.919       .  S
O20          C27   1.280       .  A
O21         Ni24   1.914       .  S
O21          C26   1.281   1_655  A
O22        Ni144   1.924       .  S
O22          C25   1.281       .  A
Ni23        O136   1.909       .  S
Ni23        O138   1.920       .  S
Ni23       Ni144   2.390   1_455  S
Ni24        O260   1.914   1_554  S
Ni24        O262   1.919   1_554  S
Ni24       Ni263   2.391   1_655  S
C25          C94   1.479       .  S
C26         C101   1.473       .  S
C27          C97   1.473       .  S
C28          C90   1.472       .  S
O29         Ni37   1.913       .  S
O29          C39   1.281   1_565  A
O30        Ni277   1.911   1_554  S
O30          C40   1.278       .  A
O31         Ni37   1.922       .  S
O31          C41   1.283   1_565  A
O32        Ni277   1.921   1_554  S
O32          C42   1.282       .  A
O33         Ni38   1.919       .  S
O33          C42   1.281   1_545  A
O34        Ni158   1.909       .  S
O34          C41   1.278       .  A
O35         Ni38   1.921       .  S
O35          C40   1.283   1_545  A
O36        Ni158   1.920       .  S
O36          C39   1.281       .  A
Ni37        O150   1.913       .  S
Ni37        O152   1.915       .  S
Ni37       Ni158   2.391   1_565  S
Ni38        O274   1.912   1_554  S
Ni38        O276   1.920   1_554  S
Ni38       Ni277   2.390   1_544  S
C39          C78   1.474       .  S
C40          C85   1.472       .  S
C41          C81   1.472       .  S
C42          C73   1.477       .  S
C43          C68   1.465       .  S
C43          C72   1.471   1_455  S
C43          C89   1.512       .  S
C43          C93   1.521       .  S
C44          C57   1.472   1_655  S
C44          C61   1.473       .  S
C44          C98   1.517   1_655  S
C44         C102   1.517       .  S
C45          C53   1.468       .  S
C45          C60   1.472       .  S
C45         C113   1.519       .  S
C45         C118   1.521       .  S
C46          C56   1.470       .  S
C46          C65   1.465   1_545  S
C46          C82   1.521   1_545  S
C46          C86   1.516       .  S
C47          C52   1.474   1_545  S
C47          C64   1.472       .  S
C47          C74   1.527       .  S
C47          C77   1.517   1_545  S
C48          C49   1.471       .  S
C48          C69   1.470       .  S
C48         C105   1.520       .  S
C48         C109   1.519       .  S
C49          C50   1.204       .  T
C50          C51   1.408       .  S
C51          C52   1.205       .  T
C53          C54   1.202       .  T
C54          C55   1.404       .  S
C55          C56   1.202       .  T
C57          C58   1.205       .  T
C58          C59   1.409       .  S
C59          C60   1.205       .  T
C61          C62   1.206       .  T
C62          C63   1.411       .  S
C63          C64   1.206       .  T
C65          C66   1.202       .  T
C66          C67   1.404       .  S
C67          C68   1.202       .  T
C69          C70   1.203       .  T
C70          C71   1.406       .  S
C71          C72   1.203       .  T
C73          C74   1.352   1_565  D
C73          H75   1.085       .  S
C74          H76   1.088       .  S
C77          C78   1.347   1_565  D
C77          H79   1.089       .  S
C78          H80   1.086       .  S
C81          C82   1.346   1_545  D
C81          H83   1.085       .  S
C82          H84   1.088       .  S
C85          C86   1.343   1_565  D
C85          H87   1.086       .  S
C86          H88   1.088       .  S
C89          C90   1.344   1_455  D
C89          H91   1.089       .  S
C90          H92   1.087       .  S
C93          C94   1.349   1_455  D
C93          H95   1.088       .  S
C94          H96   1.085       .  S
C97          C98   1.345   1_655  D
C97          H99   1.087       .  S
C98         H100   1.089       .  S
C101        C102   1.346   1_455  D
C101        H103   1.087       .  S
C102        H104   1.088       .  S
C105        C106   1.347       .  D
C105        H107   1.088       .  S
C106        H108   1.087       .  S
C109        C110   1.346       .  D
C109        H111   1.089       .  S
C110        H112   1.086       .  S
C113        C114   1.343       .  D
C113        H115   1.089       .  S
C114        H116   1.087       .  S
C117        C118   1.346       .  D
C117        H119   1.087       .  S
C118        H120   1.088       .  S
O121       Ni129   1.917       .  S
O121        C131   1.282       .  A
O122       Ni249   1.897       .  S
O122        C132   1.274       .  A
O123       Ni129   1.924       .  S
O123        C133   1.284       .  A
O124       Ni249   1.937       .  S
O124        C134   1.287       .  A
O125       Ni130   1.894       .  S
O125        C134   1.274       .  A
O126        C133   1.280       .  A
O127       Ni130   1.936       .  S
O127        C132   1.287       .  A
O128        C131   1.281       .  A
Ni130       O246   1.894       .  S
Ni130       O248   1.943       .  S
Ni130      Ni249   2.390       .  S
C131        C226   1.478       .  S
C132        C234   1.472       .  S
C133        C237   1.478       .  S
C134        C230   1.468       .  S
O135       Ni143   1.924       .  S
O135        C145   1.283   1_455  A
O136        C146   1.278       .  A
O137       Ni143   1.908       .  S
O137        C147   1.280   1_455  A
O138        C148   1.281       .  A
O139       Ni144   1.913       .  S
O139        C148   1.281   1_655  A
O140       Ni264   1.921       .  S
O140        C147   1.281       .  A
O141       Ni144   1.929       .  S
O141        C146   1.284   1_655  A
O142       Ni264   1.911       .  S
O142        C145   1.279       .  A
Ni143       O256   1.918       .  S
Ni143       O258   1.915       .  S
Ni143      Ni264   2.391   1_455  S
C145        C214   1.475       .  S
C146        C221   1.476       .  S
C147        C217   1.472       .  S
C148        C210   1.473       .  S
O149       Ni157   1.926       .  S
O149        C159   1.283   1_565  A
O150        C160   1.279       .  A
O151       Ni157   1.916       .  S
O151        C161   1.281   1_565  A
O152        C162   1.280       .  A
O153       Ni158   1.913       .  S
O153        C162   1.281   1_545  A
O154       Ni278   1.923       .  S
O154        C161   1.282       .  A
O155       Ni158   1.917       .  S
O155        C160   1.282   1_545  A
O156       Ni278   1.908       .  S
O156        C159   1.278       .  A
Ni157       O270   1.919       .  S
Ni157       O272   1.909       .  S
Ni157      Ni278   2.391   1_565  S
C159        C198   1.471       .  S
C160        C205   1.470       .  S
C161        C201   1.477       .  S
C162        C193   1.470       .  S
C163        C188   1.469   1_655  S
C163        C192   1.476       .  S
C163        C209   1.516       .  S
C163        C213   1.525   1_655  S
C164        C177   1.476   1_655  S
C164        C181   1.466       .  S
C164        C218   1.513   1_655  S
C164        C222   1.526       .  S
C165        C173   1.466       .  S
C165        C180   1.473       .  S
C165        C233   1.519       .  S
C165        C238   1.521       .  S
C166        C176   1.467   1_565  S
C166        C185   1.471       .  S
C166        C202   1.520       .  S
C166        C206   1.515   1_565  S
C167        C172   1.464   1_545  S
C167        C184   1.468       .  S
C167        C194   1.516       .  S
C167        C197   1.518   1_545  S
C168        C169   1.460       .  S
C168        C189   1.477       .  S
C168        C225   1.522       .  S
C168        C229   1.516       .  S
C169        C170   1.200       .  T
C170        C171   1.401       .  S
C171        C172   1.200       .  T
C173        C174   1.202       .  T
C174        C175   1.405       .  S
C175        C176   1.202       .  T
C177        C178   1.206       .  T
C178        C179   1.410       .  S
C179        C180   1.206       .  T
C181        C182   1.203       .  T
C182        C183   1.405       .  S
C183        C184   1.203       .  T
C185        C186   1.204       .  T
C186        C187   1.408       .  S
C187        C188   1.204       .  T
C189        C190   1.206       .  T
C190        C191   1.410       .  S
C191        C192   1.206       .  T
C193        C194   1.345   1_565  D
C193        H195   1.087       .  S
C194        H196   1.089       .  S
C197        C198   1.343   1_565  D
C197        H199   1.088       .  S
C198        H200   1.087       .  S
C201        C202   1.347   1_545  D
C201        H203   1.086       .  S
C202        H204   1.089       .  S
C205        C206   1.342   1_565  D
C205        H207   1.087       .  S
C206        H208   1.089       .  S
C209        C210   1.346   1_655  D
C209        H211   1.089       .  S
C210        H212   1.086       .  S
C213        C214   1.348   1_455  D
C213        H215   1.088       .  S
C214        H216   1.085       .  S
C217        C218   1.346   1_655  D
C217        H219   1.086       .  S
C218        H220   1.089       .  S
C221        C222   1.347   1_455  D
C221        H223   1.085       .  S
C222        H224   1.088       .  S
C225        C226   1.349       .  D
C225        H227   1.088       .  S
C226        H228   1.085       .  S
C229        C230   1.338       .  D
C229        H231   1.089       .  S
C230        H232   1.088       .  S
C233        C234   1.338       .  D
C233        H235   1.089       .  S
C234        H236   1.087       .  S
C237        C238   1.345       .  D
C237        H239   1.087       .  S
C238        H240   1.089       .  S
O241       Ni249   1.890       .  S
O241        C251   1.275       .  A
O242        C252   1.282       .  A
O243       Ni249   1.944       .  S
O243        C253   1.288       .  A
O244        C254   1.283       .  A
O245       Ni250   1.911   1_556  S
O245        C254   1.278       .  A
O246        C253   1.274       .  A
O247       Ni250   1.920   1_556  S
O247        C252   1.280       .  A
O248        C251   1.287       .  A
C251        C346   1.478       .  S
C252        C354   1.474       .  S
C253        C357   1.474       .  S
C254        C350   1.472       .  S
O255       Ni263   1.912   1_556  S
O255        C265   1.281   1_455  A
O256        C266   1.280       .  A
O257       Ni263   1.916   1_556  S
O257        C267   1.280       .  A
O258        C268   1.279       .  A
O259       Ni264   1.916       .  S
O259        C268   1.282   1_655  A
O260        C267   1.281   1_655  A
O261       Ni264   1.916       .  S
O261        C266   1.282   1_655  A
O262        C265   1.281       .  A
C265        C334   1.473       .  S
C266        C341   1.475       .  S
C267        C337   1.471       .  S
C268        C330   1.472       .  S
O269       Ni277   1.911       .  S
O269        C279   1.280   1_565  A
O270        C280   1.281       .  A
O271       Ni277   1.927       .  S
O271        C281   1.284   1_565  A
O272        C282   1.278       .  A
O273       Ni278   1.927       .  S
O273        C282   1.284   1_545  A
O274        C281   1.279       .  A
O275       Ni278   1.915       .  S
O275        C280   1.281   1_545  A
O276        C279   1.281       .  A
C279        C318   1.473       .  S
C280        C325   1.473       .  S
C281        C321   1.475       .  S
C282        C313   1.472       .  S
C283        C308   1.471       .  S
C283        C312   1.465   1_455  S
C283        C329   1.515   1_455  S
C283        C333   1.516       .  S
C284        C297   1.470   1_655  S
C284        C301   1.463       .  S
C284        C338   1.513       .  S
C284        C342   1.521       .  S
C285        C293   1.484       .  S
C285        C300   1.463       .  S
C285        C353   1.516       .  S
C285        C358   1.527       .  S
C286        C296   1.478       .  S
C286        C305   1.473   1_545  S
C286        C322   1.522   1_545  S
C286        C326   1.520       .  S
C287        C292   1.473       .  S
C287        C304   1.467   1_565  S
C287        C314   1.519   1_565  S
C287        C317   1.518       .  S
C288        C289   1.470       .  S
C288        C309   1.468       .  S
C288        C345   1.514       .  S
C288        C349   1.521       .  S
C289        C290   1.205       .  T
C290        C291   1.410       .  S
C291        C292   1.205       .  T
C293        C294   1.209       .  T
C294        C295   1.416       .  S
C295        C296   1.209       .  T
C297        C298   1.202       .  T
C298        C299   1.404       .  S
C299        C300   1.202       .  T
C301        C302   1.202       .  T
C302        C303   1.404       .  S
C303        C304   1.202       .  T
C305        C306   1.205       .  T
C306        C307   1.409       .  S
C307        C308   1.205       .  T
C309        C310   1.201       .  T
C310        C311   1.402       .  S
C311        C312   1.201       .  T
C313        C314   1.343   1_565  D
C313        H315   1.087       .  S
C314        H316   1.089       .  S
C317        C318   1.347   1_565  D
C317        H319   1.088       .  S
C318        H320   1.086       .  S
C321        C322   1.345   1_545  D
C321        H323   1.086       .  S
C322        H324   1.088       .  S
C325        C326   1.348   1_565  D
C325        H327   1.087       .  S
C326        H328   1.088       .  S
C329        C330   1.342   1_655  D
C329        H331   1.089       .  S
C330        H332   1.087       .  S
C333        C334   1.347   1_455  D
C333        H335   1.088       .  S
C334        H336   1.087       .  S
C337        C338   1.344   1_455  D
C337        H339   1.087       .  S
C338        H340   1.089       .  S
C341        C342   1.348   1_455  D
C341        H343   1.085       .  S
C342        H344   1.088       .  S
C345        C346   1.353       .  D
C345        H347   1.089       .  S
C346        H348   1.087       .  S
C349        C350   1.347       .  D
C349        H351   1.089       .  S
C350        H352   1.085       .  S
C353        C354   1.345       .  D
C353        H355   1.089       .  S
C354        H356   1.087       .  S
C357        C358   1.343       .  D
C357        H359   1.085       .  S
C358        H360   1.088       .  S
