geometry optimzed in LAMMPS
_audit_creation_date              2020-11-30 
_audit_creation_method            'lammps2cif' 
_symmetry_space_group_name_H-M    'P1' 
_symmetry_Int_Tables_number       1 
_symmetry_cell_setting            triclinic 
loop_ 
_symmetry_equiv_pos_as_xyz 
  x,y,z 
_cell_length_a                    24.5095574 
_cell_length_b                    29.403767618713207 
_cell_length_c                    24.304291052754806 
_cell_angle_alpha                 89.94106065194674 
_cell_angle_beta                  89.69012420988082 
_cell_angle_gamma                 90.25968893032716 
loop_ 
_atom_site_label 
_atom_site_type_symbol 
_atom_site_fract_x 
_atom_site_fract_y 
_atom_site_fract_z 
_atom_site_charge 
N1          N  0.93480880  0.94853465  0.89883556    -0.06900
N2          N  0.92294254  0.91612959  0.86313518    -0.59000
N3          N  0.90011520  0.05415043  0.93646188    -0.06500
N4          N  0.86454125  0.08675599  0.92608238    -0.61100
N5          N  0.93755781  0.05279234  0.89744547    -0.06100
N6          N  0.92849581  0.08441636  0.86016385    -0.58900
N7          N  0.89761401  0.94986204  0.93809722    -0.05800
N8          N  0.85986666  0.91850352  0.92994153    -0.61500
C9          C  0.87618080  0.89756903  0.88320964     0.95300
C10         C  0.88301839  0.10550988  0.87843608     0.95100
N11         N  0.94197837  0.05341389  0.10507157    -0.07000
N12         N  0.93424595  0.08576958  0.14187929    -0.59500
N13         N  0.90108055  0.94964060  0.06793004    -0.05200
N14         N  0.86552376  0.91674111  0.07816861    -0.60800
N15         N  0.94041242  0.94904808  0.10457231    -0.07100
N16         N  0.93253204  0.91585251  0.14031109    -0.59800
N17         N  0.90327119  0.05426509  0.06776295    -0.04800
N18         N  0.86830035  0.08712735  0.07862409    -0.60900
Mn19       Mn  0.89872004  0.00217825  0.00268547     1.18400
C20         C  0.88826308  0.10665882  0.12480133     0.97400
C21         C  0.88578298  0.89587038  0.12335201     0.98100
N22         N  0.06596378  0.05246840  0.89498082    -0.07100
N23         N  0.07479155  0.08657819  0.86045241    -0.63400
N24         N  0.10265216  0.94814638  0.93373415    -0.05900
N25         N  0.13847278  0.91563062  0.92565374    -0.64100
N26         N  0.06487641  0.94732011  0.89556305    -0.06600
N27         N  0.07464744  0.91408749  0.86019823    -0.63700
N28         N  0.10342672  0.05224803  0.93347380    -0.05500
N29         N  0.13826630  0.08594608  0.92628843    -0.64300
Mn30       Mn  0.00079028  0.00005781  0.89476586     1.10700
C31         C  0.12001969  0.10720462  0.88078321     0.98600
C32         C  0.12064441  0.89450587  0.87988328     0.98700
N33         N  0.06917727  0.94785955  0.10131002    -0.06600
N34         N  0.08017425  0.91519729  0.13692938    -0.62000
N35         N  0.10658669  0.05220859  0.06162292    -0.05900
N36         N  0.14317389  0.08452655  0.06927694    -0.58700
N37         N  0.07009186  0.05234751  0.10140038    -0.07200
N38         N  0.08107486  0.08482166  0.13715158    -0.61500
N39         N  0.10555414  0.94815308  0.06140141    -0.06200
N40         N  0.14178635  0.91578107  0.06864112    -0.58700
Mn41       Mn  0.00533969  0.00058848  0.10479897     1.20200
Mn42       Mn  0.10576466  0.00024391  0.99739430     1.10100
Cl43       Cl  0.00245469  0.00074627  0.99985343    -0.86700
C44         C  0.12544029  0.89531535  0.11570928     0.95600
C45         C  0.12661870  0.10474507  0.11635644     0.95400
N46         N  0.56280772  0.55038302  0.39434061    -0.06900
N47         N  0.57078290  0.58318649  0.35811757    -0.59000
N48         N  0.59889580  0.44532835  0.43262817    -0.06500
N49         N  0.63369536  0.41227870  0.42200189    -0.61100
N50         N  0.56012763  0.44605624  0.39537995    -0.06100
N51         N  0.56768200  0.41348592  0.35882286    -0.58900
N52         N  0.60217934  0.54999340  0.43093776    -0.05800
N53         N  0.63793468  0.58262717  0.42011136    -0.61500
C54         C  0.61767766  0.60313007  0.37465737     0.95300
C55         C  0.61357964  0.39253729  0.37601594     0.95100
N56         N  0.56448328  0.44862147  0.60278251    -0.07000
N57         N  0.57286566  0.41694929  0.64018191    -0.59500
N58         N  0.60573475  0.55098962  0.56101715    -0.05200
N59         N  0.64390623  0.58201686  0.56921850    -0.60800
N60         N  0.56846738  0.55278725  0.60017540    -0.07100
N61         N  0.58065930  0.58513640  0.63580360    -0.59800
N62         N  0.60192159  0.44666151  0.56380868    -0.04800
N63         N  0.63677942  0.41355712  0.57428410    -0.60900
Mn64       Mn  0.60402357  0.49806777  0.49697658     1.18400
C65         C  0.61790961  0.39517889  0.62198553     0.97400
C66         C  0.62770798  0.60321680  0.61585515     0.98100
N67         N  0.43195126  0.44822061  0.39895826    -0.07100
N68         N  0.42058812  0.41554572  0.36360777    -0.63400
N69         N  0.39799948  0.55324949  0.43732758    -0.05900
N70         N  0.36260559  0.58619509  0.42966403    -0.64100
N71         N  0.43453305  0.55276485  0.39758108    -0.06600
N72         N  0.42458187  0.58547749  0.36172069    -0.63700
N73         N  0.39527051  0.44915821  0.43854165    -0.05500
N74         N  0.35812958  0.41722409  0.43110245    -0.64300
Mn75       Mn  0.49741717  0.49935955  0.39488913     1.10700
C76         C  0.37457822  0.39637145  0.38438179     0.98600
C77         C  0.37970874  0.60619164  0.38253943     0.98700
N78         N  0.43865253  0.55519785  0.60316479    -0.06600
N79         N  0.42953606  0.58889323  0.63803954    -0.62000
N80         N  0.39863396  0.45022182  0.56674904    -0.05900
N81         N  0.36360012  0.41671173  0.57442140    -0.58700
N82         N  0.43616231  0.45015142  0.60518583    -0.07200
N83         N  0.42716824  0.41643193  0.64018840    -0.61500
N84         N  0.40079480  0.55440508  0.56507487    -0.06200
N85         N  0.36553769  0.58741897  0.57275282    -0.58700
Mn86       Mn  0.50194204  0.50191504  0.60472812     1.20200
Mn87       Mn  0.39687909  0.50171570  0.50209205     1.10100
Cl88       Cl  0.50025971  0.50025734  0.49972812    -0.86700
C89         C  0.38383980  0.60879981  0.61817429     0.95600
C90         C  0.38181238  0.39581793  0.62020896     0.95400
C91         C  0.15752831  0.14099595  0.14407880    -0.03900
C92         C  0.20470893  0.15915304  0.11938590    -0.06500
C93         C  0.23657261  0.19088495  0.14737046    -0.21600
C94         C  0.22177650  0.20527999  0.20034670     0.24100
C95         C  0.17390806  0.18760829  0.22472490    -0.19200
C96         C  0.14197000  0.15591703  0.19663093    -0.09100
C97         C  0.25880214  0.23693593  0.22950818    -0.19400
C98         C  0.24274330  0.26343931  0.27158689    -0.24200
C99         C  0.27948335  0.29541797  0.30076801     0.26200
C100        C  0.26254450  0.31234104  0.35199652    -0.21000
C101        C  0.29417383  0.34431077  0.37990476    -0.10600
C102        C  0.34334461  0.36014947  0.35691709    -0.11200
C103        C  0.36095748  0.34277591  0.30617698    -0.04100
C104        C  0.32929119  0.31086863  0.27815626    -0.19200
H105        H  0.21758949  0.14822961  0.07882230     0.09900
H106        H  0.27326487  0.20390759  0.12776891     0.09900
H107        H  0.16178745  0.19672897  0.26606999     0.09600
H108        H  0.10594902  0.14214851  0.21670412     0.10700
H109        H  0.30066145  0.23827835  0.21500749     0.10800
H110        H  0.20070006  0.26207204  0.28565081     0.12700
H111        H  0.22436346  0.30112476  0.37027144     0.09200
H112        H  0.27962239  0.35720191  0.41901778     0.11300
H113        H  0.39859945  0.35466814  0.28743489     0.07900
H114        H  0.34344978  0.29983747  0.23820891     0.10700
C115        C  0.35298936  0.35728493  0.64635863    -0.03900
C116        C  0.31151192  0.33451452  0.61762691    -0.06500
C117        C  0.28079875  0.30043580  0.64323694    -0.21600
C118        C  0.29033981  0.28879754  0.69827647     0.24100
C119        C  0.33332291  0.31043349  0.72649516    -0.19200
C120        C  0.36439525  0.34437960  0.70064184    -0.09100
C121        C  0.25485054  0.25371092  0.72420266    -0.19400
C122        C  0.24665375  0.25048812  0.77884493    -0.24200
C123        C  0.21132759  0.21519331  0.80444666     0.26200
C124        C  0.22273344  0.20143396  0.85835175    -0.21000
C125        C  0.19208829  0.16705305  0.88341080    -0.10600
C126        C  0.14884304  0.14607650  0.85528787    -0.11200
C127        C  0.13566567  0.16113792  0.80223486    -0.04100
C128        C  0.16667787  0.19542040  0.77691534    -0.19200
H129        H  0.30224784  0.34346710  0.57546767     0.09900
H130        H  0.24855197  0.28385291  0.62033719     0.09900
H131        H  0.34339360  0.30123068  0.76828975     0.09600
H132        H  0.39649291  0.36118022  0.72348136     0.10700
H133        H  0.23385673  0.23040128  0.69685159     0.10800
H134        H  0.26764162  0.27358520  0.80641809     0.12700
H135        H  0.25636577  0.21656471  0.88068528     0.09200
H136        H  0.20283067  0.15643938  0.92462750     0.11300
H137        H  0.10218224  0.14580972  0.77992172     0.07900
H138        H  0.15538260  0.20638997  0.73605985     0.10700
C139        C  0.34938947  0.64282275  0.35490224    -0.03900
C140        C  0.30240306  0.66077351  0.37978467    -0.06500
C141        C  0.27059110  0.69252273  0.35210831    -0.21600
C142        C  0.28500347  0.70725735  0.29905337     0.24100
C143        C  0.33295841  0.69003782  0.27457277    -0.19200
C144        C  0.36489528  0.65822591  0.30243639    -0.09100
C145        C  0.24737653  0.73896227  0.27062257    -0.19400
C146        C  0.26015397  0.76240672  0.22469655    -0.24200
C147        C  0.22226984  0.79437699  0.19701517     0.26200
C148        C  0.23480722  0.80831844  0.14317879    -0.21000
C149        C  0.20240918  0.84018816  0.11629830    -0.10600
C150        C  0.15669226  0.85893208  0.14276480    -0.11200
C151        C  0.14326704  0.84449461  0.19615004    -0.04100
C152        C  0.17584768  0.81273693  0.22323725    -0.19200
H153        H  0.28949893  0.64960043  0.42030695     0.09900
H154        H  0.23404647  0.70517903  0.37204176     0.09900
H155        H  0.34538848  0.69961704  0.23346547     0.09600
H156        H  0.40086135  0.64475355  0.28227692     0.10700
H157        H  0.20725139  0.74274384  0.28890359     0.10800
H158        H  0.30005720  0.75844223  0.20598560     0.12700
H159        H  0.27024788  0.79489153  0.12199757     0.09200
H160        H  0.21372886  0.85069339  0.07505137     0.11300
H161        H  0.10847794  0.85871886  0.21761489     0.07900
H162        H  0.16516659  0.80411427  0.26513582     0.10700
C163        C  0.64089894  0.35546677  0.34559802    -0.03900
C164        C  0.61809554  0.33811921  0.29702029    -0.06500
C165        C  0.64534897  0.30472042  0.26673864    -0.21600
C166        C  0.69616487  0.28831106  0.28399033     0.24100
C167        C  0.71827136  0.30480005  0.33350217    -0.19200
C168        C  0.69090369  0.33810020  0.36388177    -0.09100
C169        C  0.72402803  0.25342317  0.24983489    -0.19400
C170        C  0.77841100  0.24668230  0.25014709    -0.24200
C171        C  0.80623449  0.21165910  0.21608942     0.26200
C172        C  0.85756507  0.19590836  0.23274065    -0.21000
C173        C  0.88457976  0.16215736  0.20278431    -0.10600
C174        C  0.86103024  0.14382807  0.15510438    -0.11200
C175        C  0.81051270  0.16052227  0.13738148    -0.04100
C176        C  0.78340460  0.19415988  0.16740836    -0.19200
H177        H  0.57944378  0.35068662  0.28206319     0.09900
H178        H  0.62709101  0.29220274  0.22915444     0.09900
H179        H  0.75629617  0.29184810  0.34935962     0.09600
H180        H  0.70915680  0.35051603  0.40149435     0.10700
H181        H  0.69843852  0.23326981  0.22287735     0.10800
H182        H  0.80392498  0.26690500  0.27712852     0.12700
H183        H  0.87640766  0.20919074  0.26964104     0.09200
H184        H  0.92367459  0.15014516  0.21724096     0.11300
H185        H  0.79166589  0.14734336  0.10045107     0.07900
H186        H  0.74498281  0.20652397  0.15186834     0.10700
C187        C  0.65952611  0.63935600  0.64350054    -0.03900
C188        C  0.71103659  0.65232820  0.62314985    -0.06500
C189        C  0.74157579  0.68591569  0.64979096    -0.21600
C190        C  0.72153458  0.70712784  0.69747524     0.24100
C191        C  0.66959246  0.69443747  0.71749966    -0.19200
C192        C  0.63909507  0.66076391  0.69086796    -0.09100
C193        C  0.75535126  0.74317754  0.72372501    -0.19400
C194        C  0.74946429  0.75644478  0.77651320    -0.24200
C195        C  0.78316452  0.79265044  0.80259513     0.26200
C196        C  0.76288329  0.81420185  0.84993800    -0.21000
C197        C  0.79318918  0.84811965  0.87621195    -0.10600
C198        C  0.84470360  0.86109567  0.85583925    -0.11200
C199        C  0.86541785  0.83930931  0.80887276    -0.04100
C200        C  0.83515003  0.80528550  0.78261082    -0.19200
H201        H  0.72789514  0.63639990  0.58671877     0.09900
H202        H  0.78122062  0.69519582  0.63322373     0.09900
H203        H  0.65169198  0.71084442  0.75298867     0.09600
H204        H  0.59932236  0.65167371  0.70721721     0.10700
H205        H  0.78659539  0.75889324  0.69820442     0.10800
H206        H  0.71820677  0.74076993  0.80205272     0.12700
H207        H  0.72320802  0.80497369  0.86647372     0.09200
H208        H  0.77611819  0.86432507  0.91236262     0.11300
H209        H  0.90521905  0.84837123  0.79257336     0.07900
H210        H  0.85322959  0.78859404  0.74740942     0.10700
C211        C  0.64460112  0.35804665  0.65284393    -0.03900
C212        C  0.62039394  0.34110347  0.70127335    -0.06500
C213        C  0.64587527  0.30708754  0.73183945    -0.21600
C214        C  0.69642712  0.28949159  0.71517913     0.24100
C215        C  0.72029292  0.30585582  0.66603061    -0.19200
C216        C  0.69461249  0.33987256  0.63527851    -0.09100
C217        C  0.72198702  0.25364350  0.74975291    -0.19400
C218        C  0.77586921  0.24471647  0.74950819    -0.24200
C219        C  0.80183354  0.20919449  0.78425874     0.26200
C220        C  0.85310839  0.19271942  0.76817664    -0.21000
C221        C  0.87943431  0.15943085  0.79913041    -0.10600
C222        C  0.85535552  0.14204032  0.84738016    -0.11200
C223        C  0.80452384  0.15902370  0.86434419    -0.04100
C224        C  0.77796679  0.19232979  0.83316598    -0.19200
H225        H  0.58172864  0.35427900  0.71579347     0.09900
H226        H  0.62629649  0.29487996  0.76913443     0.09900
H227        H  0.75829467  0.29221003  0.65064041     0.09600
H228        H  0.71401037  0.35207149  0.59790868     0.10700
H229        H  0.69515033  0.23475666  0.77715561     0.10800
H230        H  0.80263538  0.26374497  0.72217300     0.12700
H231        H  0.87270369  0.20532448  0.73108221     0.09200
H232        H  0.91869041  0.14717061  0.78504159     0.11300
H233        H  0.78516282  0.14641628  0.90153442     0.07900
H234        H  0.73933057  0.20507087  0.84807832     0.10700
C235        C  0.35408128  0.64654000  0.64445365    -0.03900
C236        C  0.30882165  0.66541433  0.61772967    -0.06500
C237        C  0.27780347  0.69904827  0.64315659    -0.21600
C238        C  0.29089479  0.71429721  0.69604966     0.24100
C239        C  0.33715056  0.69629706  0.72241732    -0.19200
C240        C  0.36847921  0.66265172  0.69673199    -0.09100
C241        C  0.25569670  0.74949327  0.72145384    -0.19400
C242        C  0.25063767  0.75515278  0.77611234    -0.24200
C243        C  0.21514854  0.79016358  0.80151948     0.26200
C244        C  0.22773425  0.80513113  0.85465598    -0.21000
C245        C  0.19626862  0.83843601  0.88017333    -0.10600
C246        C  0.15104483  0.85725213  0.85330525    -0.11200
C247        C  0.13722023  0.84147869  0.80072886    -0.04100
C248        C  0.16898821  0.80816263  0.77495969    -0.19200
H249        H  0.29690843  0.65385002  0.57722171     0.09900
H250        H  0.24279969  0.71265745  0.62175915     0.09900
H251        H  0.34966728  0.70830231  0.76246887     0.09600
H252        H  0.40339996  0.64884311  0.71802422     0.10700
H253        H  0.23219775  0.77061478  0.69376187     0.10800
H254        H  0.27415156  0.73402350  0.80379045     0.12700
H255        H  0.26263679  0.79151698  0.87621558     0.09200
H256        H  0.20775619  0.84974320  0.92091296     0.11300
H257        H  0.10235812  0.85525454  0.77930990     0.07900
H258        H  0.15681533  0.79637183  0.73471188     0.10700
C259        C  0.64486282  0.64056323  0.34438406    -0.03900
C260        C  0.61896371  0.66106018  0.29936336    -0.06500
C261        C  0.64535890  0.69515967  0.26911247    -0.21600
C262        C  0.69838807  0.70916647  0.28274222     0.24100
C263        C  0.72388410  0.68928844  0.32863769    -0.19200
C264        C  0.69732910  0.65529284  0.35907010    -0.09100
C265        C  0.72486487  0.74529558  0.24892920    -0.19400
C266        C  0.77930855  0.75136135  0.24564750    -0.24200
C267        C  0.80569331  0.78793901  0.21253716     0.26200
C268        C  0.85801627  0.80279567  0.22751413    -0.21000
C269        C  0.88417370  0.83757467  0.19822377    -0.10600
C270        C  0.85878203  0.85788698  0.15279740    -0.11200
C271        C  0.80703676  0.84230866  0.13676451    -0.04100
C272        C  0.78069090  0.80763791  0.16627427    -0.19200
H273        H  0.57834975  0.65057614  0.28726944     0.08700
H274        H  0.62453220  0.71023242  0.23442087     0.09900
H275        H  0.76391062  0.70017683  0.34181852     0.09600
H276        H  0.71805699  0.64030326  0.39384852     0.10700
H277        H  0.69813231  0.76721779  0.22548001     0.10800
H278        H  0.80610077  0.72948527  0.26906559     0.12700
H279        H  0.87841378  0.78790409  0.26258067     0.09200
H280        H  0.92420172  0.84872102  0.21137896     0.11300
H281        H  0.78672449  0.85712672  0.10162886     0.07900
H282        H  0.74121619  0.79610536  0.15219918     0.10700
loop_ 
_geom_bond_atom_site_label_1 
_geom_bond_atom_site_label_2 
_geom_bond_distance 
_geom_bond_site_symmetry_2 
_ccdc_geom_bond_type 
N1            N2   1.322       .  A
N1            N7   1.317       .  A
N1          Mn30   2.213   1_665  S
N2            C9   1.355       .  A
N3            N5   1.317       .  A
N3            N4   1.324       .  A
N3          Mn19   2.218   1_556  S
N4           C10   1.357       .  A
N5            N6   1.318       .  A
N5          Mn30   2.198   1_655  S
N6           C10   1.351       .  A
N7            N8   1.319       .  A
N7          Mn19   2.199   1_566  S
N8            C9   1.352       .  A
C9          C198   1.479       .  S
C10         C222   1.481       .  S
N11          N17   1.316       .  A
N11          N12   1.320       .  A
N11         Mn41   2.201   1_655  S
N12          C20   1.353       .  A
N13          N14   1.322       .  A
N13          N15   1.316       .  A
N13         Mn19   2.214   1_565  S
N14          C21   1.355       .  A
N15          N16   1.319       .  A
N15         Mn41   2.193   1_665  S
N16          C21   1.352       .  A
N17          N18   1.320       .  A
N17         Mn19   2.206       .  S
N18          C20   1.354       .  A
Mn19        Cl43   2.544   1_654  S
C20         C174   1.478       .  S
C21         C270   1.478       .  S
N22          N23   1.323       .  A
N22          N28   1.314       .  A
N22         Mn30   2.215       .  S
N23          C31   1.357       .  A
N24          N26   1.314       .  A
N24          N25   1.315       .  A
N24         Mn42   2.180   1_565  S
N25          C32   1.349       .  A
N26          N27   1.324       .  A
N26         Mn30   2.212   1_565  S
N27          C32   1.357       .  A
N28          N29   1.316       .  A
N28         Mn42   2.180       .  S
N29          C31   1.349       .  A
Mn30        Cl43   2.555       .  S
C31         C126   1.475       .  S
C32         C246   1.475       .  S
N33          N34   1.322       .  A
N33          N39   1.314       .  A
N33         Mn41   2.209   1_565  S
N34          C44   1.356       .  A
N35          N36   1.318       .  A
N35          N37   1.314       .  A
N35         Mn42   2.186   1_554  S
N36          C45   1.351       .  A
N37          N38   1.320       .  A
N37         Mn41   2.195       .  S
N38          C45   1.354       .  A
N39          N40   1.317       .  A
N39         Mn42   2.182   1_564  S
N40          C44   1.350       .  A
Mn41        Cl43   2.552   1_554  S
Mn42        Cl43   2.533       .  S
C44         C150   1.475       .  S
C45          C91   1.471       .  S
N46          N47   1.318       .  A
N46          N52   1.316       .  A
N46         Mn75   2.190       .  S
N47          C54   1.351       .  A
N48          N50   1.316       .  A
N48          N49   1.321       .  A
N48         Mn64   2.207       .  S
N49          C55   1.354       .  A
N50          N51   1.320       .  A
N50         Mn75   2.200       .  S
N51          C55   1.353       .  A
N52          N53   1.322       .  A
N52         Mn64   2.215       .  S
N53          C54   1.356       .  A
C54         C259   1.478       .  S
C55         C163   1.478       .  S
N56          N62   1.317       .  A
N56          N57   1.318       .  A
N56         Mn86   2.197       .  S
N57          C65   1.351       .  A
N58          N59   1.320       .  A
N58          N60   1.317       .  A
N58         Mn64   2.202       .  S
N59          C66   1.353       .  A
N60          N61   1.321       .  A
N60         Mn86   2.210       .  S
N61          C66   1.355       .  A
N62          N63   1.323       .  A
N62         Mn64   2.218       .  S
N63          C65   1.357       .  A
Mn64        Cl88   2.545       .  S
C65         C211   1.481       .  S
C66         C187   1.479       .  S
N67          N68   1.319       .  A
N67          N73   1.314       .  A
N67         Mn75   2.196       .  S
N68          C76   1.353       .  A
N69          N71   1.314       .  A
N69          N70   1.317       .  A
N69         Mn87   2.184       .  S
N70          C77   1.351       .  A
N71          N72   1.322       .  A
N71         Mn75   2.206       .  S
N72          C77   1.355       .  A
N73          N74   1.318       .  A
N73         Mn87   2.186       .  S
N74          C76   1.352       .  A
Mn75        Cl88   2.550       .  S
C76         C102   1.472       .  S
C77         C139   1.475       .  S
N78          N79   1.324       .  A
N78          N84   1.314       .  A
N78         Mn86   2.210       .  S
N79          C89   1.357       .  A
N80          N81   1.316       .  A
N80          N82   1.315       .  A
N80         Mn87   2.182       .  S
N81          C90   1.350       .  A
N82          N83   1.323       .  A
N82         Mn86   2.212       .  S
N83          C90   1.356       .  A
N84          N85   1.315       .  A
N84         Mn87   2.181       .  S
N85          C89   1.349       .  A
Mn86        Cl88   2.553       .  S
Mn87        Cl88   2.535       .  S
C89         C235   1.475       .  S
C90         C115   1.474       .  S
C91          C92   1.403       .  A
C91          C96   1.402       .  A
C92          C93   1.394       .  A
C92         H105   1.083       .  S
C93          C94   1.402       .  A
C93         H106   1.084       .  S
C94          C95   1.408       .  A
C94          C97   1.481       .  S
C95          C96   1.396       .  A
C95         H107   1.081       .  S
C96         H108   1.083       .  S
C97          C98   1.345       .  D
C97         H109   1.084       .  S
C98          C99   1.483       .  S
C98         H110   1.084       .  S
C99         C100   1.403       .  A
C99         C104   1.409       .  A
C100        C101   1.395       .  A
C100        H111   1.084       .  S
C101        C102   1.403       .  A
C101        H112   1.083       .  S
C102        C103   1.402       .  A
C103        C104   1.395       .  A
C103        H113   1.083       .  S
C104        H114   1.080       .  S
C115        C116   1.404       .  A
C115        C120   1.402       .  A
C116        C117   1.395       .  A
C116        H129   1.083       .  S
C117        C118   1.402       .  A
C117        H130   1.084       .  S
C118        C119   1.410       .  A
C118        C121   1.484       .  S
C119        C120   1.399       .  A
C119        H131   1.081       .  S
C120        H132   1.083       .  S
C121        C122   1.345       .  D
C121        H133   1.085       .  S
C122        C123   1.483       .  S
C122        H134   1.085       .  S
C123        C124   1.401       .  A
C123        C128   1.409       .  A
C124        C125   1.394       .  A
C124        H135   1.084       .  S
C125        C126   1.405       .  A
C125        H136   1.083       .  S
C126        C127   1.403       .  A
C127        C128   1.400       .  A
C127        H137   1.083       .  S
C128        H138   1.082       .  S
C139        C140   1.403       .  A
C139        C144   1.403       .  A
C140        C141   1.394       .  A
C140        H153   1.083       .  S
C141        C142   1.403       .  A
C141        H154   1.084       .  S
C142        C143   1.411       .  A
C142        C145   1.487       .  S
C143        C144   1.399       .  A
C143        H155   1.080       .  S
C144        H156   1.083       .  S
C145        C146   1.346       .  D
C145        H157   1.083       .  S
C146        C147   1.487       .  S
C146        H158   1.083       .  S
C147        C148   1.403       .  A
C147        C152   1.411       .  A
C148        C149   1.395       .  A
C148        H159   1.084       .  S
C149        C150   1.404       .  A
C149        H160   1.083       .  S
C150        C151   1.402       .  A
C151        C152   1.398       .  A
C151        H161   1.083       .  S
C152        H162   1.080       .  S
C163        C164   1.404       .  A
C163        C168   1.404       .  A
C164        C165   1.398       .  A
C164        H177   1.083       .  S
C165        C166   1.404       .  A
C165        H178   1.083       .  S
C166        C167   1.408       .  A
C166        C169   1.487       .  S
C167        C168   1.399       .  A
C167        H179   1.081       .  S
C168        H180   1.083       .  S
C169        C170   1.349       .  D
C169        H181   1.084       .  S
C170        C171   1.488       .  S
C170        H182   1.085       .  S
C171        C172   1.404       .  A
C171        C176   1.408       .  A
C172        C173   1.398       .  A
C172        H183   1.083       .  S
C173        C174   1.404       .  A
C173        H184   1.083       .  S
C174        C175   1.404       .  A
C175        C176   1.398       .  A
C175        H185   1.083       .  S
C176        H186   1.081       .  S
C187        C188   1.404       .  A
C187        C192   1.404       .  A
C188        C189   1.398       .  A
C188        H201   1.083       .  S
C189        C190   1.404       .  A
C189        H202   1.083       .  S
C190        C191   1.409       .  A
C190        C193   1.489       .  S
C191        C192   1.399       .  A
C191        H203   1.081       .  S
C192        H204   1.083       .  S
C193        C194   1.349       .  D
C193        H205   1.084       .  S
C194        C195   1.489       .  S
C194        H206   1.084       .  S
C195        C196   1.404       .  A
C195        C200   1.409       .  A
C196        C197   1.398       .  A
C196        H207   1.083       .  S
C197        C198   1.405       .  A
C197        H208   1.083       .  S
C198        C199   1.403       .  A
C199        C200   1.399       .  A
C199        H209   1.083       .  S
C200        H210   1.081       .  S
C211        C212   1.405       .  A
C211        C216   1.404       .  A
C212        C213   1.397       .  A
C212        H225   1.083       .  S
C213        C214   1.403       .  A
C213        H226   1.083       .  S
C214        C215   1.410       .  A
C214        C217   1.490       .  S
C215        C216   1.402       .  A
C215        H227   1.081       .  S
C216        H228   1.083       .  S
C217        C218   1.348       .  D
C217        H229   1.084       .  S
C218        C219   1.490       .  S
C218        H230   1.084       .  S
C219        C220   1.403       .  A
C219        C224   1.411       .  A
C220        C221   1.396       .  A
C220        H231   1.083       .  S
C221        C222   1.405       .  A
C221        H232   1.083       .  S
C222        C223   1.404       .  A
C223        C224   1.402       .  A
C223        H233   1.083       .  S
C224        H234   1.081       .  S
C235        C236   1.405       .  A
C235        C240   1.403       .  A
C236        C237   1.393       .  A
C236        H249   1.083       .  S
C237        C238   1.400       .  A
C237        H250   1.084       .  S
C238        C239   1.410       .  A
C238        C241   1.483       .  S
C239        C240   1.400       .  A
C239        H251   1.081       .  S
C240        H252   1.083       .  S
C241        C242   1.344       .  D
C241        H253   1.085       .  S
C242        C243   1.484       .  S
C242        H254   1.085       .  S
C243        C244   1.400       .  A
C243        C248   1.410       .  A
C244        C245   1.393       .  A
C244        H255   1.084       .  S
C245        C246   1.405       .  A
C245        H256   1.083       .  S
C246        C247   1.403       .  A
C247        C248   1.400       .  A
C247        H257   1.083       .  S
C248        H258   1.081       .  S
C259        C260   1.405       .  A
C259        C264   1.403       .  A
C260        C261   1.397       .  A
C260        H273   1.083       .  S
C261        C262   1.403       .  A
C261        H274   1.083       .  S
C262        C263   1.409       .  A
C262        C265   1.487       .  S
C263        C264   1.399       .  A
C263        H275   1.081       .  S
C264        H276   1.083       .  S
C265        C266   1.347       .  D
C265        H277   1.085       .  S
C266        C267   1.486       .  S
C266        H278   1.084       .  S
C267        C268   1.403       .  A
C267        C272   1.409       .  A
C268        C269   1.397       .  A
C268        H279   1.083       .  S
C269        C270   1.404       .  A
C269        H280   1.083       .  S
C270        C271   1.404       .  A
C271        C272   1.399       .  A
C271        H281   1.083       .  S
C272        H282   1.081       .  S
