geometry optimzed in LAMMPS
_audit_creation_date              2020-11-30 
_audit_creation_method            'lammps2cif' 
_symmetry_space_group_name_H-M    'P1' 
_symmetry_Int_Tables_number       1 
_symmetry_cell_setting            triclinic 
loop_ 
_symmetry_equiv_pos_as_xyz 
  x,y,z 
_cell_length_a                    34.02890339 
_cell_length_b                    33.87320911064942 
_cell_length_c                    87.26421827040006 
_cell_angle_alpha                 90.01610030257149 
_cell_angle_beta                  89.9793488372212 
_cell_angle_gamma                 120.17045954347697 
loop_ 
_atom_site_label 
_atom_site_type_symbol 
_atom_site_fract_x 
_atom_site_fract_y 
_atom_site_fract_z 
_atom_site_charge 
N1          N  0.43537604  0.94700531  0.35558967    -0.26700
N2          N  0.41431307  0.93214125  0.36889355    -0.34500
C3          C  0.37208660  0.89707953  0.36643720     0.01700
C4          C  0.36579568  0.88919556  0.35084435     0.07700
C5          C  0.40667193  0.92158615  0.34429604    -0.05400
H6          H  0.34798346  0.87818911  0.37543063     0.08400
H7          H  0.41527389  0.92588181  0.33224600     0.09600
Cu8        Cu  0.44314246  0.95766542  0.39013991     0.44200
Cu9        Cu  0.50290984  0.00043078  0.35353615     0.42000
Cu10       Cu  0.56060289  0.04263227  0.39010607     0.43900
N11         N  0.48022977  0.98389106  0.41010107    -0.34100
N12         N  0.52433036  0.01354575  0.41005019    -0.28300
C13         C  0.53962974  0.02144118  0.42457805    -0.04400
C14         C  0.50316879  0.99611560  0.43419667     0.07800
C15         C  0.46598405  0.97282837  0.42467997     0.01600
H16         H  0.57454344  0.04430483  0.42789143     0.09300
H17         H  0.43148287  0.94860489  0.42806319     0.08300
N18         N  0.58983315  0.07046790  0.36907096    -0.35500
N19         N  0.56977657  0.05515761  0.35564992    -0.27700
C20         C  0.59839162  0.08184971  0.34451135    -0.02900
C21         C  0.63800122  0.11576019  0.35131418     0.05700
C22         C  0.63113203  0.10730240  0.36686821     0.03800
H23         H  0.59036929  0.07776942  0.33241523     0.08900
H24         H  0.65429896  0.12685501  0.37599907     0.07700
N25         N  0.05752185  0.56944909  0.28990906    -0.26700
N26         N  0.07290508  0.58893439  0.27640689    -0.34500
C27         C  0.10924382  0.63075624  0.27849168     0.01700
C28         C  0.11725433  0.63838138  0.29404908     0.07700
C29         C  0.08366519  0.59877288  0.30095802    -0.05400
H30         H  0.12891036  0.65360540  0.26929458     0.08400
H31         H  0.07934591  0.59120997  0.31308750     0.09600
Cu32       Cu  0.04651702  0.55743224  0.25551086     0.44200
Cu33       Cu  0.00370565  0.50235784  0.29248792     0.42000
Cu34       Cu  0.97236010  0.43653904  0.25692151     0.43900
N35         N  0.02166787  0.51729805  0.23600789    -0.34100
N36         N  0.99689474  0.47227280  0.23648774    -0.28300
C37         C  0.98840792  0.45594108  0.22205150    -0.04400
C38         C  0.00813323  0.49259371  0.21203342     0.07800
C39         C  0.02883495  0.53093976  0.22128876     0.01600
H40         H  0.96834660  0.42017103  0.21907697     0.09300
H41         H  0.04844739  0.56613452  0.21760444     0.08300
N42         N  0.94174373  0.41023454  0.27800237    -0.35500
N43         N  0.95211197  0.43387804  0.29091562    -0.27700
C44         C  0.92337836  0.40708858  0.30199854    -0.02900
C45         C  0.89342512  0.36467388  0.29572110     0.05700
C46         C  0.90630266  0.36811889  0.28051186     0.03800
H47         H  0.92363544  0.41808148  0.31365449     0.08900
H48         H  0.89032770  0.34222377  0.27174962     0.07700
N49         N  0.94949033  0.51146713  0.02240723    -0.26700
N50         N  0.93831906  0.52252047  0.03558920    -0.34500
C51         C  0.90257432  0.52854676  0.03334741     0.01700
C52         C  0.89082467  0.52140258  0.01800147     0.07700
C53         C  0.92138019  0.51072864  0.01139690    -0.05400
H54         H  0.88621383  0.53727889  0.04228206     0.08400
H55         H  0.92251735  0.50205550  0.99953743     0.09600
Cu56       Cu  0.97064450  0.52741997  0.05627948     0.44200
Cu57       Cu  0.00144495  0.49621828  0.02011050     0.42000
Cu58       Cu  0.05336764  0.49096872  0.05591192     0.43900
N59         N  0.00150155  0.52151206  0.07598132    -0.34100
N60         N  0.02967841  0.50532571  0.07598550    -0.28300
C61         C  0.03984200  0.50107078  0.09059666    -0.04400
C62         C  0.01756508  0.51605188  0.10019476     0.07800
C63         C  0.99383064  0.52900600  0.09053210     0.01600
H64         H  0.06196537  0.48826445  0.09397437     0.09300
H65         H  0.97115229  0.54119776  0.09385296     0.08300
N66         N  0.07522310  0.48342136  0.03434633    -0.35500
N67         N  0.05610240  0.48469284  0.02129961    -0.27700
C68         C  0.07919479  0.47993316  0.00956729    -0.02900
C69         C  0.11484194  0.47590609  0.01549234     0.05700
C70         C  0.11112437  0.47823791  0.03124661     0.03800
H71         H  0.07132724  0.48060316  0.99759533     0.08900
H72         H  0.13318517  0.47682536  0.03987302     0.07700
N73         N  0.43897786  0.48022752  0.96011828    -0.26700
N74         N  0.41499489  0.47085506  0.94734210    -0.34500
C75         C  0.37318489  0.46336599  0.95073086     0.01700
C76         C  0.37051793  0.46829853  0.96640408     0.07700
C77         C  0.41289048  0.47881359  0.97197406    -0.05400
H78         H  0.34719445  0.45629738  0.94229535     0.08400
H79         H  0.42443324  0.48633174  0.98372296     0.09600
Cu80       Cu  0.44114215  0.47271363  0.92559646     0.44200
Cu81       Cu  0.50720676  0.49757862  0.96062491     0.42000
Cu82       Cu  0.56201906  0.51558623  0.92353646     0.43900
N83         N  0.47661620  0.48449003  0.90507387    -0.34100
N84         N  0.52122292  0.50251049  0.90440263    -0.28300
C85         C  0.53427911  0.50824462  0.88963426    -0.04400
C86         C  0.49600083  0.49248873  0.88055253     0.07800
C87         C  0.45999372  0.47745417  0.89070162     0.01600
H88         H  0.56894822  0.52173553  0.88580184     0.09300
H89         H  0.42444838  0.46310524  0.88785929     0.08300
N90         N  0.59431912  0.52001207  0.94413108    -0.35500
N91         N  0.57455765  0.51359222  0.95767472    -0.27700
C92         C  0.60394683  0.51657555  0.96856843    -0.02900
C93         C  0.64400951  0.52497561  0.96153657     0.05700
C94         C  0.63658837  0.52699132  0.94603743     0.03800
H95         H  0.59607832  0.51151148  0.98066669     0.08900
H96         H  0.65972703  0.53193252  0.93676138     0.07700
N97         N  0.49170548  0.05333528  0.62478222    -0.26700
N98         N  0.48545241  0.06804728  0.61147202    -0.34500
C99         C  0.47885664  0.10348413  0.61385010     0.01700
C100        C  0.48084549  0.11180380  0.62941918     0.07700
C101        C  0.48906159  0.07928892  0.63603260    -0.05400
H102        H  0.47324384  0.12199463  0.60482815     0.08400
H103        H  0.49317014  0.07500045  0.64809687     0.09600
Cu104      Cu  0.48699134  0.04090079  0.59038675     0.44200
Cu105      Cu  0.50388995  0.99856843  0.62662414     0.42000
Cu106      Cu  0.51899532  0.95562963  0.58973865     0.43900
N107        N  0.49464389  0.01306643  0.57028965    -0.34100
N108        N  0.50858588  0.98305162  0.56995379    -0.28300
C109        C  0.51152136  0.97263008  0.55526591    -0.04400
C110        C  0.49816800  0.99691064  0.54596129     0.07800
C111        C  0.48762007  0.02208471  0.55587615     0.01600
H112        H  0.52136128  0.94825088  0.55166949     0.09300
H113        H  0.47602757  0.04551770  0.55285196     0.08300
N114        N  0.51965403  0.92774035  0.61084231    -0.35500
N115        N  0.51413278  0.94265553  0.62424081    -0.27700
C116        C  0.51469204  0.91520703  0.63535111    -0.02900
C117        C  0.52065992  0.88141964  0.62858629     0.05700
C118        C  0.52365398  0.89064124  0.61305913     0.03800
H119        H  0.51025497  0.91911807  0.64742122     0.08900
H120        H  0.52777866  0.87136991  0.60394375     0.07700
N121        N  0.48184900  0.42603506  0.69054451    -0.26700
N122        N  0.47653400  0.40582568  0.70398373    -0.34500
C123        C  0.47007683  0.36368437  0.70176172     0.01700
C124        C  0.47118964  0.35660729  0.68619408     0.07700
C125        C  0.47857989  0.39686992  0.67941421    -0.05400
H126        H  0.46604077  0.34032958  0.71088969     0.08400
H127        H  0.48281348  0.40500371  0.66732498     0.09600
Cu128      Cu  0.48175799  0.43646700  0.72509382     0.44200
Cu129      Cu  0.49629226  0.49360170  0.68803476     0.42000
Cu130      Cu  0.51985449  0.55565116  0.72403829     0.43900
N131        N  0.49700531  0.47612293  0.74474010    -0.34100
N132        N  0.51368541  0.52074274  0.74426576    -0.28300
C133        C  0.52255472  0.53738702  0.75864299    -0.04400
C134        C  0.51006514  0.50133822  0.76865460     0.07800
C135        C  0.49386833  0.46296344  0.75946061     0.01600
H136        H  0.53572339  0.57285646  0.76160822     0.09300
H137        H  0.48127312  0.42816649  0.76317745     0.08300
N138        N  0.51837464  0.58308104  0.70290888    -0.35500
N139        N  0.51042353  0.56126006  0.68968242    -0.27700
C140        C  0.51113990  0.58896627  0.67842179    -0.02900
C141        C  0.51952456  0.62992868  0.68493944     0.05700
C142        C  0.52384625  0.62472758  0.70046114     0.03800
H143        H  0.50479547  0.57950831  0.66645667     0.08900
H144        H  0.53001347  0.64927653  0.70941438     0.07700
C145        C  0.46923817  0.21348769  0.64341441     0.16600
C146        C  0.46631316  0.25325434  0.64468117    -0.32500
C147        C  0.46708648  0.27008598  0.65944844     0.21000
C148        C  0.46982959  0.24782131  0.67237867     0.03200
C149        C  0.47252885  0.20793215  0.67111202    -0.22200
C150        C  0.47253386  0.19152949  0.65633742     0.12300
S151        S  0.47048253  0.18863037  0.62654228    -0.05900
C152        C  0.47610548  0.14840332  0.63694918    -0.09300
C153        C  0.47649826  0.15417161  0.65271200    -0.25900
S154        S  0.47115575  0.27409640  0.68922727    -0.03100
C155        C  0.46883926  0.31613487  0.67878242    -0.16600
C156        C  0.46651261  0.30931448  0.66303973    -0.14600
H157        H  0.46431462  0.27074161  0.63458596     0.20800
H158        H  0.47527455  0.19086282  0.68119802     0.16800
H159        H  0.47989308  0.13250398  0.66108537     0.19400
H160        H  0.46509514  0.33208947  0.65464636     0.12700
C161        C  0.52416459  0.77480461  0.64222361     0.16600
C162        C  0.52502250  0.73386724  0.64339409    -0.32500
C163        C  0.52347427  0.71644032  0.65813073     0.21000
C164        C  0.52170577  0.73913559  0.67110332     0.03200
C165        C  0.52082257  0.78001153  0.66992969    -0.22200
C166        C  0.52187970  0.79716686  0.65520440     0.12300
S167        S  0.52512842  0.80117792  0.62543038    -0.05900
C168        C  0.52203874  0.84270885  0.63596237    -0.09300
C169        C  0.52056561  0.83606681  0.65169944    -0.25900
S170        S  0.52010973  0.71265321  0.68791739    -0.03100
C171        C  0.52118734  0.66999719  0.67743889    -0.16600
C172        C  0.52304449  0.67662606  0.66168236    -0.14600
H173        H  0.52648173  0.71620384  0.63325607     0.20800
H174        H  0.51907768  0.79752749  0.68006387     0.16800
H175        H  0.51854992  0.85838595  0.66014934     0.19400
H176        H  0.52399246  0.65361059  0.65327491     0.12700
C177        C  0.47732882  0.47278369  0.83718254     0.16600
C178        C  0.46171309  0.45559016  0.82243751    -0.32500
C179        C  0.48861346  0.48081527  0.80995069     0.21000
C180        C  0.52883168  0.52181492  0.81201503     0.03200
C181        C  0.54493279  0.53853486  0.82677497    -0.22200
C182        C  0.51843270  0.51284986  0.83927243     0.12300
S183        S  0.44928981  0.44771527  0.85380439    -0.05900
C184        C  0.49408461  0.49088001  0.86368889    -0.09300
C185        C  0.52852189  0.52308615  0.85448595    -0.25900
S186        S  0.55509131  0.54854661  0.79534071    -0.03100
C187        C  0.51209458  0.50335082  0.78551372    -0.16600
C188        C  0.47922063  0.46968110  0.79475892    -0.14600
H189        H  0.42994873  0.42402238  0.82076905     0.20800
H190        H  0.57660059  0.57020503  0.82844292     0.16800
H191        H  0.55907545  0.55261023  0.85871081     0.19400
H192        H  0.44948432  0.43924954  0.79056714     0.12700
C193        C  0.75388317  0.52936102  0.97515065     0.16600
C194        C  0.79515173  0.52963908  0.97641910    -0.32500
C195        C  0.80999235  0.52683664  0.99118503     0.21000
C196        C  0.78514669  0.52445630  0.00410157     0.03200
C197        C  0.74390700  0.52406942  0.00282591    -0.22200
C198        C  0.72884678  0.52637682  0.98807823     0.12300
S199        S  0.72934569  0.53143899  0.95831066    -0.05900
C200        C  0.68452562  0.52759444  0.96879827    -0.09300
C201        C  0.68912311  0.52537804  0.98451868    -0.25900
S202        S  0.80900941  0.52175673  0.02097780    -0.03100
C203        C  0.85277542  0.52322111  0.01056630    -0.16600
C204        C  0.84876283  0.52587199  0.99481869    -0.14600
H205        H  0.81462854  0.53157490  0.96634412     0.20800
H206        H  0.72424902  0.52176707  0.01289348     0.16800
H207        H  0.66450370  0.52262527  0.99293726     0.19400
H208        H  0.87300046  0.52729334  0.98647812     0.12700
C209        C  0.19848445  0.46423511  0.98850742     0.16600
C210        C  0.22177851  0.45915774  0.97606088    -0.32500
C211        C  0.26409851  0.46274991  0.97896212     0.21000
C212        C  0.28233676  0.47087473  0.99359751     0.03200
C213        C  0.25888395  0.47555571  0.00604891    -0.22200
C214        C  0.21666643  0.47208099  0.00314721     0.12300
S215        S  0.14734774  0.46236291  0.98738987    -0.05900
C216        C  0.15031663  0.47199190  0.00689287    -0.09300
C217        C  0.18917320  0.47636344  0.01372645    -0.25900
S218        S  0.33469375  0.47555954  0.99464954    -0.03100
C219        C  0.33231121  0.46668696  0.97512146    -0.16600
C220        C  0.29247255  0.46006244  0.96833283    -0.14600
H221        H  0.20778744  0.45319470  0.96459639     0.20800
H222        H  0.27314869  0.48211027  0.01748072     0.16800
H223        H  0.19730066  0.48292681  0.02578236     0.19400
H224        H  0.28492824  0.45447453  0.95621700     0.12700
C225        C  0.01342445  0.53013435  0.14376487     0.16600
C226        C  0.01160130  0.54465654  0.15866374    -0.32500
C227        C  0.01032981  0.51717908  0.17090151     0.21000
C228        C  0.00991219  0.47652555  0.16843879     0.03200
C229        C  0.01249407  0.46236249  0.15353309    -0.22200
C230        C  0.01473114  0.49036043  0.14129293     0.12300
S231        S  0.01392394  0.55802924  0.12739302    -0.05900
C232        C  0.01715434  0.51636218  0.11709186    -0.09300
C233        C  0.01761351  0.48265621  0.12598699    -0.25900
S234        S  0.00683306  0.44747883  0.18485147    -0.03100
C235        C  0.00769788  0.49136236  0.19513358    -0.16600
C236        C  0.00953891  0.52609139  0.18619471    -0.14600
H237        H  0.01121627  0.57601089  0.16063176     0.20800
H238        H  0.01281019  0.43097453  0.15156567     0.15900
H239        H  0.01875407  0.45347897  0.12147028     0.19400
H240        H  0.01014845  0.55621819  0.19065779     0.12700
C241        C  0.51864565  0.98643811  0.47723131     0.16600
C242        C  0.53245718  0.98098100  0.49182838    -0.32500
C243        C  0.51115375  0.98754210  0.50454391     0.21000
C244        C  0.47789932  0.99943302  0.50280892     0.03200
C245        C  0.46321056  0.00365955  0.48821689    -0.22200
C246        C  0.48418195  0.99664515  0.47550473     0.12300
S247        S  0.54201440  0.98248441  0.46038843    -0.05900
C248        C  0.50410616  0.99343225  0.45096012    -0.09300
C249        C  0.47512692  0.99990884  0.46040059    -0.25900
S250        S  0.45841052  0.00889744  0.51963508    -0.03100
C251        C  0.49468677  0.99568253  0.52913374    -0.16600
C252        C  0.52046610  0.98466578  0.51965570    -0.14600
H253        H  0.55910057  0.97268467  0.49321525     0.20800
H254        H  0.43706091  0.01265467  0.48683292     0.16800
H255        H  0.44967205  0.00773311  0.45641632     0.19400
H256        H  0.54546678  0.97615317  0.52359790     0.12700
C257        C  0.74600566  0.22468743  0.33781124     0.16600
C258        C  0.78557349  0.26766678  0.33663766    -0.32500
C259        C  0.80574489  0.28164706  0.32212786     0.21000
C260        C  0.78749097  0.25383436  0.30938516     0.03200
C261        C  0.74779085  0.21092622  0.31054490    -0.22200
C262        C  0.72735385  0.19713352  0.32503089     0.12300
S263        S  0.71657371  0.20166563  0.35437297    -0.05900
C264        C  0.67813495  0.15456349  0.34399787    -0.09300
C265        C  0.68823188  0.15692585  0.32848420    -0.25900
S266        S  0.81713520  0.27683185  0.29284801    -0.03100
C267        C  0.85444896  0.32478460  0.30311801    -0.16600
C268        C  0.84407561  0.32244960  0.31861021    -0.14600
H269        H  0.79992711  0.28932932  0.34660137     0.20800
H270        H  0.73335467  0.18932976  0.30057177     0.16800
H271        H  0.66820305  0.13060668  0.32019185     0.19400
H272        H  0.86343962  0.34911535  0.32687406     0.12700
C273        C  0.22347237  0.74849091  0.30777931     0.16600
C274        C  0.26537818  0.78918887  0.30906987    -0.32500
C275        C  0.28025290  0.80709992  0.32381291     0.21000
C276        C  0.25422911  0.78574721  0.33666952     0.03200
C277        C  0.21224981  0.74516490  0.33537413    -0.22200
C278        C  0.19769484  0.72690112  0.32065671     0.12300
S279        S  0.20005829  0.72068043  0.29098401    -0.05900
C280        C  0.15520112  0.67910379  0.30140031    -0.09300
C281        C  0.15855187  0.68702205  0.31708269    -0.25900
S282        S  0.27864877  0.81222442  0.35353738    -0.03100
C283        C  0.32491171  0.85224881  0.34323527    -0.16600
C284        C  0.32080671  0.84534879  0.32749545    -0.14600
H285        H  0.28580517  0.80579823  0.29903868     0.20800
H286        H  0.19214549  0.72818377  0.34542707     0.16800
H287        H  0.13379987  0.66477771  0.32544730     0.19400
H288        H  0.34640284  0.86661407  0.31919233     0.12700
loop_ 
_geom_bond_atom_site_label_1 
_geom_bond_atom_site_label_2 
_geom_bond_distance 
_geom_bond_site_symmetry_2 
_ccdc_geom_bond_type 
N1            N2   1.324       .  A
N1            C5   1.350       .  A
N1           Cu9   2.100   1_565  S
N2            C3   1.344       .  A
N2           Cu8   2.073       .  S
C3            C4   1.382       .  A
C3            H6   1.082       .  S
C4            C5   1.390       .  A
C4          C283   1.481       .  S
C5            H7   1.081       .  S
Cu8          N11   2.071       .  S
Cu9          N19   2.100       .  S
Cu10         N12   2.074       .  S
Cu10         N18   2.075       .  S
N11          N12   1.321   1_565  A
N11          C15   1.346       .  A
N12          C13   1.345       .  A
C13          C14   1.382   1_545  A
C13          H16   1.082       .  S
C14          C15   1.382       .  A
C14         C248   1.467       .  S
C15          H17   1.082       .  S
N18          N19   1.323       .  A
N18          C22   1.344       .  A
N19          C20   1.351       .  A
C20          C21   1.390       .  A
C20          H23   1.082       .  S
C21          C22   1.383       .  A
C21         C264   1.482       .  S
C22          H24   1.082       .  S
N25          N26   1.323       .  A
N25          C29   1.349       .  A
N25         Cu33   2.094       .  S
N26          C27   1.345       .  A
N26         Cu32   2.075       .  S
C27          C28   1.383       .  A
C27          H30   1.082       .  S
C28          C29   1.389       .  A
C28         C280   1.480       .  S
C29          H31   1.082       .  S
Cu32         N35   2.075       .  S
Cu33         N43   2.095   1_455  S
Cu34         N36   2.080       .  S
Cu34         N42   2.081       .  S
N35          N36   1.321   1_455  A
N35          C39   1.345       .  A
N36          C37   1.347       .  A
C37          C38   1.385   1_655  A
C37          H40   1.082       .  S
C38          C39   1.384       .  A
C38         C235   1.475       .  S
C39          H41   1.082       .  S
N42          N43   1.323       .  A
N42          C46   1.345       .  A
N43          C44   1.350       .  A
C44          C45   1.390       .  A
C44          H47   1.082       .  S
C45          C46   1.384       .  A
C45         C267   1.483       .  S
C46          H48   1.082       .  S
N49          N50   1.323       .  A
N49          C53   1.347       .  A
N49         Cu57   2.086   1_655  S
N50          C51   1.345       .  A
N50         Cu56   2.077       .  S
C51          C52   1.384       .  A
C51          H54   1.082       .  S
C52          C53   1.386       .  A
C52         C203   1.477       .  S
C53          H55   1.082   1_554  S
Cu56         N59   2.076   1_655  S
Cu57         N67   2.086       .  S
Cu58         N60   2.085       .  S
Cu58         N66   2.086       .  S
N59          N60   1.322       .  A
N59          C63   1.346   1_455  A
N60          C61   1.348       .  A
C61          C62   1.386       .  A
C61          H64   1.082       .  S
C62          C63   1.383   1_455  A
C62         C232   1.475       .  S
C63          H65   1.082       .  S
N66          N67   1.323       .  A
N66          C70   1.346       .  A
N67          C68   1.348       .  A
C68          C69   1.387       .  A
C68          H71   1.082   1_554  S
C69          C70   1.386       .  A
C69         C216   1.483       .  S
C70          H72   1.081       .  S
N73          N74   1.323       .  A
N73          C77   1.348       .  A
N73         Cu81   2.090       .  S
N74          C75   1.346       .  A
N74         Cu80   2.083       .  S
C75          C76   1.386       .  A
C75          H78   1.081       .  S
C76          C77   1.388       .  A
C76         C219   1.483       .  S
C77          H79   1.082       .  S
Cu80         N83   2.083       .  S
Cu81         N91   2.089       .  S
Cu82         N84   2.072       .  S
Cu82         N90   2.073       .  S
N83          N84   1.322       .  A
N83          C87   1.347       .  A
N84          C85   1.345       .  A
C85          C86   1.383       .  A
C85          H88   1.082       .  S
C86          C87   1.385       .  A
C86         C184   1.473       .  S
C87          H89   1.082       .  S
N90          N91   1.322       .  A
N90          C94   1.346       .  A
N91          C92   1.347       .  A
C92          C93   1.388       .  A
C92          H95   1.081       .  S
C93          C94   1.384       .  A
C93         C200   1.479       .  S
C94          H96   1.082       .  S
N97          N98   1.323       .  A
N97         C101   1.350       .  A
N97        Cu105   2.101   1_545  S
N98          C99   1.343       .  A
N98        Cu104   2.069       .  S
C99         C100   1.382       .  A
C99         H102   1.082       .  S
C100        C101   1.391       .  A
C100        C152   1.482       .  S
C101        H103   1.081       .  S
Cu104       N107   2.068       .  S
Cu105       N115   2.101       .  S
Cu106       N108   2.074       .  S
Cu106       N114   2.075       .  S
N107        N108   1.321   1_545  A
N107        C111   1.344       .  A
N108        C109   1.346       .  A
C109        C110   1.385       .  A
C109        H112   1.082       .  S
C110        C111   1.383   1_565  A
C110        C251   1.472       .  S
C111        H113   1.082       .  S
N114        N115   1.324       .  A
N114        C118   1.344       .  A
N115        C116   1.350       .  A
C116        C117   1.390       .  A
C116        H119   1.082       .  S
C117        C118   1.383       .  A
C117        C168   1.483       .  S
C118        H120   1.082       .  S
N121        N122   1.324       .  A
N121        C125   1.349       .  A
N121       Cu129   2.097       .  S
N122        C123   1.345       .  A
N122       Cu128   2.078       .  S
C123        C124   1.383       .  A
C123        H126   1.082       .  S
C124        C125   1.389       .  A
C124        C155   1.481       .  S
C125        H127   1.082       .  S
Cu128       N131   2.076       .  S
Cu129       N139   2.097       .  S
Cu130       N132   2.076       .  S
Cu130       N138   2.077       .  S
N131        N132   1.321       .  A
N131        C135   1.346       .  A
N132        C133   1.346       .  A
C133        C134   1.383       .  A
C133        H136   1.082       .  S
C134        C135   1.384       .  A
C134        C187   1.473       .  S
C135        H137   1.082       .  S
N138        N139   1.323       .  A
N138        C142   1.344       .  A
N139        C140   1.351       .  A
C140        C141   1.390       .  A
C140        H143   1.082       .  S
C141        C142   1.383       .  A
C141        C171   1.482       .  S
C142        H144   1.082       .  S
C145        C150   1.386       .  A
C145        C146   1.404       .  A
C145        S151   1.707       .  A
C146        C147   1.404       .  A
C146        H157   1.083       .  S
C147        C156   1.375       .  A
C147        C148   1.386       .  A
C148        C149   1.404       .  A
C148        S154   1.707       .  A
C149        C150   1.404       .  A
C149        H158   1.083       .  S
C150        C153   1.375       .  A
S151        C152   1.727       .  A
C152        C153   1.388       .  A
C153        H159   1.082       .  S
S154        C155   1.726       .  A
C155        C156   1.389       .  A
C156        H160   1.082       .  S
C161        C166   1.386       .  A
C161        C162   1.405       .  A
C161        S167   1.708       .  A
C162        C163   1.405       .  A
C162        H173   1.083       .  S
C163        C172   1.377       .  A
C163        C164   1.386       .  A
C164        C165   1.404       .  A
C164        S170   1.707       .  A
C165        C166   1.403       .  A
C165        H174   1.083       .  S
C166        C169   1.375       .  A
S167        C168   1.727       .  A
C168        C169   1.388       .  A
C169        H175   1.082       .  S
S170        C171   1.726       .  A
C171        C172   1.390       .  A
C172        H176   1.083       .  S
C177        C182   1.387       .  A
C177        C178   1.402       .  A
C177        S183   1.709       .  A
C178        C179   1.403       .  A
C178        H189   1.082       .  S
C179        C188   1.371       .  A
C179        C180   1.387       .  A
C180        C181   1.403       .  A
C180        S186   1.709       .  A
C181        C182   1.404       .  A
C181        H190   1.082       .  S
C182        C185   1.372       .  A
S183        C184   1.722       .  A
C184        C185   1.387       .  A
C185        H191   1.083       .  S
S186        C187   1.723       .  A
C187        C188   1.386       .  A
C188        H192   1.083       .  S
C193        C198   1.386       .  A
C193        C194   1.404       .  A
C193        S199   1.709       .  A
C194        C195   1.405       .  A
C194        H205   1.083       .  S
C195        C204   1.373       .  A
C195        C196   1.387   1_556  A
C196        C197   1.401       .  A
C196        S202   1.706       .  A
C197        C198   1.402   1_554  A
C197        H206   1.083       .  S
C198        C201   1.371       .  A
S199        C200   1.726       .  A
C200        C201   1.387       .  A
C201        H207   1.082       .  S
S202        C203   1.724       .  A
C203        C204   1.388   1_554  A
C204        H208   1.083       .  S
C209        C214   1.386   1_556  A
C209        C210   1.405       .  A
C209        S215   1.712       .  A
C210        C211   1.406       .  A
C210        H221   1.083       .  S
C211        C220   1.374       .  A
C211        C212   1.386       .  A
C212        C213   1.403   1_556  A
C212        S218   1.710       .  A
C213        C214   1.404       .  A
C213        H222   1.083       .  S
C214        C217   1.373       .  A
S215        C216   1.726   1_556  A
C216        C217   1.389       .  A
C217        H223   1.082       .  S
S218        C219   1.725       .  A
C219        C220   1.391       .  A
C220        H224   1.082       .  S
C225        C230   1.387       .  A
C225        C226   1.402       .  A
C225        S231   1.708       .  A
C226        C227   1.403       .  A
C226        H237   1.082       .  S
C227        C236   1.371       .  A
C227        C228   1.387       .  A
C228        C229   1.404       .  A
C228        S234   1.711       .  A
C229        C230   1.405       .  A
C229        H238   1.082       .  S
C230        C233   1.374       .  A
S231        C232   1.723       .  A
C232        C233   1.387       .  A
C233        H239   1.083       .  S
S234        C235   1.724       .  A
C235        C236   1.387       .  A
C236        H240   1.083       .  S
C241        C246   1.388       .  A
C241        C242   1.402       .  A
C241        S247   1.708       .  A
C242        C243   1.403       .  A
C242        H253   1.083       .  S
C243        C252   1.371       .  A
C243        C244   1.387       .  A
C244        C245   1.402   1_565  A
C244        S250   1.706   1_565  A
C245        C246   1.402   1_545  A
C245        H254   1.083       .  S
C246        C249   1.371       .  A
S247        C248   1.721       .  A
C248        C249   1.384       .  A
C249        H255   1.083   1_565  S
S250        C251   1.723   1_545  A
C251        C252   1.386       .  A
C252        H256   1.083       .  S
C257        C262   1.386       .  A
C257        C258   1.404       .  A
C257        S263   1.707       .  A
C258        C259   1.404       .  A
C258        H269   1.083       .  S
C259        C268   1.376       .  A
C259        C260   1.386       .  A
C260        C261   1.405       .  A
C260        S266   1.708       .  A
C261        C262   1.405       .  A
C261        H270   1.083       .  S
C262        C265   1.377       .  A
S263        C264   1.726       .  A
C264        C265   1.389       .  A
C265        H271   1.083       .  S
S266        C267   1.726       .  A
C267        C268   1.389       .  A
C268        H272   1.083       .  S
C273        C278   1.386       .  A
C273        C274   1.404       .  A
C273        S279   1.708       .  A
C274        C275   1.404       .  A
C274        H285   1.083       .  S
C275        C284   1.374       .  A
C275        C276   1.386       .  A
C276        C277   1.403       .  A
C276        S282   1.707       .  A
C277        C278   1.403       .  A
C277        H286   1.083       .  S
C278        C281   1.374       .  A
S279        C280   1.726       .  A
C280        C281   1.388       .  A
C281        H287   1.083       .  S
S282        C283   1.726       .  A
C283        C284   1.388       .  A
C284        H288   1.082       .  S
