geometry optimzed in LAMMPS
_audit_creation_date              2020-11-30 
_audit_creation_method            'lammps2cif' 
_symmetry_space_group_name_H-M    'P1' 
_symmetry_Int_Tables_number       1 
_symmetry_cell_setting            triclinic 
loop_ 
_symmetry_equiv_pos_as_xyz 
  x,y,z 
_cell_length_a                    27.05401388 
_cell_length_b                    27.48834955830656 
_cell_length_c                    27.339359860160275 
_cell_angle_alpha                 89.34752731811209 
_cell_angle_beta                  89.5430641332965 
_cell_angle_gamma                 90.01820983404426 
loop_ 
_atom_site_label 
_atom_site_type_symbol 
_atom_site_fract_x 
_atom_site_fract_y 
_atom_site_fract_z 
_atom_site_charge 
N1          N  0.44437418  0.44507687  0.95380660    -0.27200
N2          N  0.40126719  0.45808454  0.97223555    -0.35100
C3          C  0.37083375  0.41909855  0.97153204     0.01100
C4          C  0.39714533  0.38009883  0.95238832     0.07100
C5          C  0.44352446  0.39807131  0.94191174    -0.06000
H6          H  0.33234380  0.41946670  0.98253915     0.07800
H7          H  0.47335296  0.37950633  0.92330893     0.09000
Cu8        Cu  0.39077759  0.53007949  0.99383690     0.44200
Cu9        Cu  0.49881845  0.49288382  0.93541188     0.42000
Cu10       Cu  0.49866742  0.61585640  0.96017769     0.43900
N11         N  0.39825929  0.60299402  0.01396963    -0.34600
N12         N  0.43533560  0.63251291  0.00163841    -0.28900
C13         C  0.42719849  0.67614610  0.02186596    -0.05000
C14         C  0.38359112  0.67419390  0.04855540     0.07200
C15         C  0.36624044  0.62731518  0.04283790     0.01000
H16         H  0.45212442  0.70679575  0.01840498     0.08700
H17         H  0.33297308  0.61181610  0.05876170     0.07800
N18         N  0.55477837  0.58473720  0.91757780    -0.36100
N19         N  0.55168143  0.53808035  0.90771484    -0.28300
C20         C  0.58999398  0.52451089  0.88006656    -0.03500
C21         C  0.62007765  0.56436499  0.87188503     0.05100
C22         C  0.59674363  0.60229765  0.89664351     0.03200
H23         H  0.59657542  0.48734511  0.86923567     0.08300
H24         H  0.60966967  0.63934725  0.89989688     0.07100
N25         N  0.98983468  0.38913396  0.96049443    -0.27200
N26         N  0.01239908  0.41965018  0.99006765    -0.35100
C27         C  0.01506809  0.39857504  0.03489941     0.01100
C28         C  0.99250974  0.35317159  0.03310592     0.07100
C29         C  0.97707919  0.34869816  0.98543630    -0.06000
H30         H  0.03110468  0.41544765  0.06662662     0.07800
H31         H  0.95721709  0.31846429  0.96992820     0.09000
Cu32       Cu  0.03518716  0.48961060  0.96721949     0.44200
Cu33       Cu  0.97192452  0.40326502  0.88849973     0.42000
Cu34       Cu  0.02184052  0.50733304  0.83526540     0.43900
N35         N  0.05242063  0.55445662  0.92905302    -0.34600
N36         N  0.05352713  0.55738811  0.88069843    -0.28900
C37         C  0.06130023  0.60366424  0.86666915    -0.05000
C38         C  0.06394472  0.63200405  0.90777256     0.07200
C39         C  0.05801879  0.59975287  0.94687463     0.01000
H40         H  0.05774522  0.61673199  0.82937375     0.08700
H41         H  0.05415297  0.60903581  0.98506533     0.07800
N42         N  0.95912442  0.47533126  0.80805134    -0.36100
N43         N  0.94129255  0.43459918  0.82702024    -0.28300
C44         C  0.89373908  0.43007471  0.81421443    -0.03500
C45         C  0.88028442  0.47083097  0.78728052     0.05100
C46         C  0.92295161  0.49855062  0.78373192     0.03200
H47         H  0.86849500  0.40430162  0.83123544     0.08300
H48         H  0.92529881  0.53606449  0.77149124     0.07100
N49         N  0.76005104  0.97199489  0.22747660    -0.27200
N50         N  0.73417568  0.99596249  0.19409165    -0.35100
C51         C  0.76465788  0.02660907  0.16947952     0.01100
C52         C  0.81171346  0.02190004  0.18861216     0.07100
C53         C  0.80731053  0.98671170  0.22492578    -0.06000
H54         H  0.75259123  0.05328541  0.14272542     0.07800
H55         H  0.83551160  0.97543589  0.25048805     0.09000
Cu56       Cu  0.65725177  0.99392475  0.19065420     0.44200
Cu57       Cu  0.73067160  0.92842455  0.28317396     0.42000
Cu58       Cu  0.61126766  0.96944156  0.31211379     0.43900
N59         N  0.58248479  0.99528235  0.20943325    -0.34600
N60         N  0.56742993  0.99248104  0.25546751    -0.28900
C61         C  0.51807330  0.98929463  0.25703995    -0.05000
C62         C  0.50076248  0.98856404  0.20975265     0.07200
C63         C  0.54261570  0.99274042  0.18027857     0.01000
H64         H  0.49725467  0.98032539  0.28985813     0.08700
H65         H  0.54435695  0.98940296  0.14090753     0.07800
N66         N  0.64627307  0.91634658  0.35265020    -0.36100
N67         N  0.69078993  0.89977843  0.34199795    -0.28300
C68         C  0.70225319  0.86392762  0.37401884    -0.03500
C69         C  0.66226086  0.85706872  0.40551479     0.05100
C70         C  0.62761413  0.89109332  0.39075024     0.03200
H71         H  0.73689533  0.84426563  0.37420557     0.08300
H72         H  0.59165087  0.89766938  0.40697108     0.07100
N73         N  0.69586808  0.85458431  0.83931637    -0.27200
N74         N  0.69380640  0.90228806  0.84514566    -0.35100
C75         C  0.73782866  0.91761604  0.86183339     0.01100
C76         C  0.76825709  0.87749773  0.86786392     0.07100
C77         C  0.74042007  0.83823839  0.85336311    -0.06000
H78         H  0.74747559  0.95527661  0.86773688     0.07800
H79         H  0.75311719  0.80119615  0.84904250     0.09000
Cu80       Cu  0.63135801  0.94444658  0.82906702     0.44200
Cu81       Cu  0.64475114  0.81518999  0.80041884     0.42000
Cu82       Cu  0.53510425  0.87858307  0.76775029     0.43900
N83         N  0.56120464  0.97358811  0.81521301    -0.34600
N84         N  0.52601368  0.94862794  0.79342955    -0.28900
C85         C  0.48548917  0.97659748  0.78910838    -0.05000
C86         C  0.49520503  0.02135572  0.80944942     0.07200
C87         C  0.54355943  0.01819197  0.82581841     0.01000
H88         H  0.45144000  0.96510579  0.77226046     0.08700
H89         H  0.56446386  0.04631327  0.84375500     0.07800
N90         N  0.56029171  0.81804613  0.73081057    -0.36100
N91         N  0.60180257  0.79536896  0.74177463    -0.28300
C92         C  0.61657013  0.76908875  0.70306155    -0.03500
C93         C  0.58256825  0.77545471  0.66579387     0.05100
C94         C  0.54706285  0.80616947  0.68529516     0.03200
H95         H  0.65241831  0.75190777  0.70016162     0.08300
H96         H  0.51831322  0.82480532  0.66517957     0.07100
N97         N  0.02276865  0.24452746  0.47893943    -0.27200
N98         N  0.06249786  0.21773791  0.48667022    -0.35100
C99         C  0.07600331  0.19690094  0.44409366     0.01100
C100        C  0.04343268  0.21250426  0.40823569     0.07100
C101        C  0.01047395  0.24267647  0.43160113    -0.06000
H102        H  0.10810963  0.17396504  0.43919018     0.07800
H103        H  0.98030182  0.26270030  0.41520228     0.09000
Cu104      Cu  0.09687544  0.21798238  0.55473021     0.44200
Cu105      Cu  0.99047841  0.28752360  0.53102054     0.42000
Cu106      Cu  0.05990638  0.32468004  0.63210447     0.43900
N107        N  0.12162101  0.23162113  0.62546949    -0.34600
N108        N  0.10867407  0.26943405  0.65243593    -0.28900
C109        C  0.13231965  0.26668398  0.69543838    -0.05000
C110        C  0.16164721  0.22551473  0.69567198     0.07200
C111        C  0.15395133  0.20413788  0.65082163     0.01000
H112        H  0.12910006  0.29340483  0.72405080     0.08700
H113        H  0.17130733  0.17148846  0.63713508     0.07800
N114        N  0.00290245  0.36695802  0.60359622    -0.36100
N115        N  0.97476838  0.34962230  0.56871607    -0.28300
C116        C  0.94420010  0.38437647  0.55268370    -0.03500
C117        C  0.95380880  0.42675421  0.57771953     0.05100
C118        C  0.99105217  0.41411396  0.61043312     0.03200
H119        H  0.92033613  0.37989092  0.52155410     0.08300
H120        H  0.01112156  0.43836193  0.63403114     0.07100
N121        N  0.10578786  0.81003176  0.41099824    -0.27200
N122        N  0.13264227  0.83978036  0.43771968    -0.35100
C123        C  0.17512134  0.84955493  0.41340990     0.01100
C124        C  0.17515357  0.82412374  0.36985403     0.07100
C125        C  0.13072238  0.79937393  0.36970356    -0.06000
H126        H  0.20382030  0.87345797  0.42642268     0.07800
H127        H  0.11689372  0.77628066  0.34110872     0.09000
Cu128      Cu  0.10953803  0.86601678  0.50595370     0.44200
Cu129      Cu  0.03597018  0.78561431  0.43091400     0.42000
Cu130      Cu  0.97893832  0.84995392  0.52826378     0.43900
N131        N  0.07267229  0.89027070  0.56886199    -0.34600
N132        N  0.02394080  0.88988081  0.57293179    -0.28900
C133        C  0.01078819  0.90305559  0.61828599    -0.05000
C134        C  0.05306839  0.91092812  0.64492944     0.07200
C135        C  0.09177763  0.90241092  0.61251031     0.01000
H136        H  0.97368720  0.89944896  0.63297706     0.08700
H137        H  0.13068460  0.90082005  0.62123358     0.07800
N138        N  0.95425994  0.78306642  0.50547628    -0.36100
N139        N  0.97446645  0.75978889  0.46838091    -0.28300
C140        C  0.96044253  0.71297276  0.47051412    -0.03500
C141        C  0.93133490  0.70593716  0.51186152     0.05100
C142        C  0.92794330  0.75133044  0.53297464     0.03200
H143        H  0.97695282  0.68467370  0.44856053     0.08300
H144        H  0.91326353  0.75927948  0.56893069     0.07100
N145        N  0.38220758  0.25971983  0.90256758    -0.27200
N146        N  0.33632420  0.27589000  0.89943747    -0.35100
C147        C  0.33327572  0.31979171  0.92071064     0.01100
C148        C  0.37964477  0.33187056  0.93765028     0.07100
C149        C  0.40961712  0.29293351  0.92559980    -0.06000
H150        H  0.30109521  0.34311521  0.91950861     0.07800
H151        H  0.44923357  0.29043138  0.93011237     0.09000
Cu152      Cu  0.28394301  0.24271814  0.85645450     0.44200
Cu153      Cu  0.40785863  0.19674214  0.86953204     0.42000
Cu154      Cu  0.32639928  0.13899112  0.78458733     0.43900
N155        N  0.24604104  0.21449114  0.79784004    -0.34600
N156        N  0.26162358  0.17782975  0.77080677    -0.28900
C157        C  0.23217801  0.17424639  0.73149560    -0.05000
C158        C  0.19680543  0.21059443  0.73386098     0.07200
C159        C  0.20655458  0.23508784  0.77654371     0.01000
H160        H  0.23806726  0.14908246  0.70186842     0.08700
H161        H  0.18850474  0.26767218  0.78950382     0.07800
N162        N  0.39479730  0.11013074  0.80445595    -0.36100
N163        N  0.42517862  0.13199158  0.83484242    -0.28300
C164        C  0.46595178  0.10443949  0.84057368    -0.03500
C165        C  0.46083887  0.06297858  0.81280984     0.05100
C166        C  0.41528855  0.06784534  0.79038876     0.03200
H167        H  0.49642717  0.11334360  0.86424927     0.08300
H168        H  0.39807658  0.04233332  0.76595083     0.07100
N169        N  0.01965185  0.90545014  0.77238480    -0.27200
N170        N  0.05444657  0.87178621  0.77077256    -0.35100
C171        C  0.07676471  0.87373470  0.72658345     0.01100
C172        C  0.05438896  0.90978313  0.69871429     0.07100
C173        C  0.01836320  0.92904279  0.72907767    -0.06000
H174        H  0.10207959  0.84634486  0.71329045     0.07800
H175        H  0.98921468  0.95380635  0.71832209     0.09000
Cu176      Cu  0.05882404  0.81550089  0.82210076     0.44200
Cu177      Cu  0.96522859  0.90715461  0.82602606     0.42000
Cu178      Cu  0.95558530  0.80187657  0.90676374     0.43900
N179        N  0.05146428  0.75810927  0.87201286    -0.34600
N180        N  0.01523861  0.75415320  0.90458965    -0.28900
C181        C  0.01827682  0.71034350  0.92700480    -0.05000
C182        C  0.05780151  0.68519971  0.90707372     0.07200
C183        C  0.07769498  0.71657575  0.87216905     0.01000
H184        H  0.99012713  0.69551065  0.95122779     0.08700
H185        H  0.10618209  0.70804482  0.84562250     0.07800
N186        N  0.89688529  0.84828486  0.89088193    -0.36100
N187        N  0.90147573  0.88842705  0.86409777    -0.28300
C188        C  0.85638163  0.90723742  0.85584262    -0.03500
C189        C  0.82160808  0.87707739  0.87760622     0.05100
C190        C  0.84849697  0.83992395  0.89930062     0.03200
H191        H  0.84914588  0.93727967  0.83101033     0.08300
H192        H  0.83383525  0.80745688  0.91681743     0.07100
N193        N  0.25691101  0.80859052  0.26383781    -0.27200
N194        N  0.27225814  0.85097823  0.28051918    -0.35100
C195        C  0.24664578  0.86203823  0.32126904     0.01100
C196        C  0.21289302  0.82536943  0.33056894     0.07100
C197        C  0.22026420  0.79206442  0.29341280    -0.06000
H198        H  0.25119356  0.89521273  0.34166901     0.07800
H199        H  0.20031513  0.75844144  0.28816487     0.09000
Cu200      Cu  0.32515634  0.89439619  0.24659773     0.44200
Cu201      Cu  0.28678402  0.77574801  0.20106979     0.42000
Cu202      Cu  0.37213166  0.85550423  0.13306570     0.43900
N203        N  0.38151877  0.93060203  0.20976858    -0.34600
N204        N  0.39898548  0.91642313  0.16705972    -0.28900
C205        C  0.44172202  0.93983499  0.15742936    -0.05000
C206        C  0.45180739  0.96996424  0.19632183     0.07200
C207        C  0.41247915  0.96351642  0.22849870     0.01000
H208        H  0.46673782  0.93056074  0.12790672     0.08700
H209        H  0.40968677  0.97706227  0.26541717     0.07800
N210        N  0.35530973  0.78535105  0.11333216    -0.36100
N211        N  0.32555455  0.75521405  0.13756951    -0.28300
C212        C  0.32881930  0.71090682  0.11680707    -0.03500
C213        C  0.36262080  0.71370220  0.07831709     0.05100
C214        C  0.37828532  0.76140134  0.07728043     0.03200
H215        H  0.31022682  0.67856446  0.13039319     0.08300
H216        H  0.40634413  0.77719699  0.05358641     0.07100
N217        N  0.02662816  0.21611981  0.27754511    -0.27200
N218        N  0.01676324  0.16988359  0.28707961    -0.35100
C219        C  0.02673372  0.16017492  0.33437827     0.01100
C220        C  0.04375708  0.20231440  0.35565959     0.07100
C221        C  0.04265759  0.23711998  0.31867022    -0.06000
H222        H  0.01687459  0.12665781  0.35317087     0.07800
H223        H  0.04895572  0.27575383  0.32248335     0.09000
Cu224      Cu  0.97762893  0.12665654  0.23943453     0.44200
Cu225      Cu  0.00987224  0.25018499  0.21136326     0.42000
Cu226      Cu  0.92693343  0.18392624  0.13094436     0.43900
N227        N  0.92157858  0.09673169  0.19837531    -0.34600
N228        N  0.90086353  0.11815420  0.16013880    -0.28900
C229        C  0.85972068  0.09318482  0.14840757    -0.05000
C230        C  0.85462533  0.05431778  0.18091314     0.07200
C231        C  0.89471410  0.05768519  0.21166910     0.01000
H232        H  0.83390945  0.10421952  0.12036415     0.08700
H233        H  0.90164026  0.03586861  0.24407811     0.07800
N234        N  0.96015930  0.25041774  0.11282277    -0.36100
N235        N  0.98958536  0.27491269  0.14216038    -0.28300
C236        C  0.00500400  0.31580505  0.11895458    -0.03500
C237        C  0.98465200  0.31689897  0.07268498     0.05100
C238        C  0.95643971  0.27492758  0.07016213     0.03200
H239        H  0.03013538  0.34211207  0.13423019     0.08300
H240        H  0.93507956  0.26274556  0.03933301     0.07100
C241        C  0.92439449  0.65834994  0.53634870    -0.05200
C242        C  0.93787343  0.65158180  0.58551892    -0.05100
C243        C  0.94277008  0.60462752  0.60526177    -0.23300
C244        C  0.93403825  0.56388709  0.57609599     0.18900
C245        C  0.91698453  0.57083425  0.52774280     0.16100
C246        C  0.91223497  0.61789181  0.50825679    -0.18300
C247        C  0.90755783  0.53061413  0.49854865    -0.20100
C248        C  0.91752354  0.48392146  0.51591656    -0.12700
C249        C  0.93729669  0.47625641  0.56290597     0.04000
C250        C  0.94418142  0.51654048  0.59344985    -0.24800
H251        H  0.94782922  0.68239007  0.60772840     0.09600
H252        H  0.95543484  0.60019537  0.64253877     0.12700
H253        H  0.90172808  0.62303738  0.47034905     0.12600
H254        H  0.89414028  0.53532420  0.46155722     0.12300
H255        H  0.91167568  0.45417750  0.49114176     0.12900
H256        H  0.95874279  0.51126530  0.62993097     0.14800
C257        C  0.59103475  0.76933916  0.61262733    -0.05200
C258        C  0.55042452  0.77084307  0.58095578    -0.05100
C259        C  0.55718925  0.78078133  0.53120992    -0.23300
C260        C  0.60468487  0.79002386  0.51257123     0.18900
C261        C  0.64622444  0.78335433  0.54292894     0.16100
C262        C  0.63917671  0.77201712  0.59275795    -0.18300
C263        C  0.69372534  0.79275794  0.52400096    -0.20100
C264        C  0.69951781  0.81343299  0.47726529    -0.12700
C265        C  0.65792554  0.82465606  0.44889550     0.04000
C266        C  0.61089396  0.81002774  0.46557029    -0.24800
H267        H  0.51310540  0.76780102  0.59530233     0.09000
H268        H  0.52501759  0.78482666  0.50815494     0.12700
H269        H  0.67090111  0.77068271  0.61664153     0.12600
H270        H  0.72608213  0.78719829  0.54646861     0.12300
H271        H  0.73617937  0.82382954  0.46486787     0.12900
H272        H  0.57868294  0.81739321  0.44334557     0.14800
C273        C  0.82914411  0.48917631  0.78539205    -0.05200
C274        C  0.79115988  0.45816885  0.77040850    -0.05100
C275        C  0.74178907  0.47063191  0.77847941    -0.23300
C276        C  0.72981582  0.51351737  0.80325349     0.18900
C277        C  0.76765098  0.54592571  0.81688441     0.16100
C278        C  0.81715975  0.53403467  0.80682318    -0.18300
C279        C  0.75545478  0.58792010  0.84322022    -0.20100
C280        C  0.70669708  0.59589690  0.85889715    -0.12700
C281        C  0.66937516  0.56237588  0.84775962     0.04000
C282        C  0.68097798  0.52269888  0.81758867    -0.24800
H283        H  0.79985040  0.42334432  0.75430761     0.09000
H284        H  0.71311838  0.44538486  0.76788488     0.12700
H285        H  0.84638953  0.55766317  0.81945141     0.12600
H286        H  0.78400527  0.61326382  0.85385220     0.12300
H287        H  0.69878975  0.62684808  0.88179311     0.12900
H288        H  0.65245508  0.49717025  0.80738778     0.14800
loop_ 
_geom_bond_atom_site_label_1 
_geom_bond_atom_site_label_2 
_geom_bond_distance 
_geom_bond_site_symmetry_2 
_ccdc_geom_bond_type 
N1            N2   1.318       .  A
N1            C5   1.336       .  A
N1           Cu9   2.030       .  S
N2            C3   1.352       .  A
N2           Cu8   2.090       .  S
C3            C4   1.392       .  A
C3            H6   1.082       .  S
C4            C5   1.375       .  A
C4          C148   1.469       .  S
C5            H7   1.082       .  S
Cu8          N11   2.095   1_556  S
Cu9          N19   2.030       .  S
Cu10         N12   2.100   1_556  S
Cu10         N18   2.095       .  S
N11          N12   1.329       .  A
N11          C15   1.350       .  A
N12          C13   1.344       .  A
C13          C14   1.383       .  A
C13          H16   1.082       .  S
C14          C15   1.382       .  A
C14         C213   1.475       .  S
C15          H17   1.082       .  S
N18          N19   1.316       .  A
N18          C22   1.354       .  A
N19          C20   1.334       .  A
C20          C21   1.380       .  A
C20          H23   1.081       .  S
C21          C22   1.398       .  A
C21         C281   1.484       .  S
C22          H24   1.082       .  S
N25          N26   1.324   1_655  A
N25          C29   1.341       .  A
N25         Cu33   2.063       .  S
N26          C27   1.352   1_556  A
N26         Cu32   2.106       .  S
C27          C28   1.391   1_455  A
C27          H30   1.082       .  S
C28          C29   1.378   1_554  A
C28         C237   1.477       .  S
C29          H31   1.082       .  S
Cu32         N35   2.105       .  S
Cu33         N43   2.060       .  S
Cu34         N36   2.056       .  S
Cu34         N42   2.059   1_455  S
N35          N36   1.324       .  A
N35          C39   1.351       .  A
N36          C37   1.340       .  A
C37          C38   1.377       .  A
C37          H40   1.082       .  S
C38          C39   1.389       .  A
C38         C182   1.472       .  S
C39          H41   1.082       .  S
N42          N43   1.318       .  A
N42          C46   1.345       .  A
N43          C44   1.342       .  A
C44          C45   1.384       .  A
C44          H47   1.083       .  S
C45          C46   1.385       .  A
C45         C273   1.474       .  S
C46          H48   1.082       .  S
N49          N50   1.324       .  A
N49          C53   1.342       .  A
N49         Cu57   2.079       .  S
N50          C51   1.349   1_565  A
N50         Cu56   2.085       .  S
C51          C52   1.386       .  A
C51          H54   1.082       .  S
C52          C53   1.383   1_545  A
C52         C230   1.476       .  S
C53          H55   1.082       .  S
Cu56         N59   2.083       .  S
Cu57         N67   2.077       .  S
Cu58         N60   2.053       .  S
Cu58         N66   2.058       .  S
N59          N60   1.321       .  A
N59          C63   1.349       .  A
N60          C61   1.338       .  A
C61          C62   1.379       .  A
C61          H64   1.082       .  S
C62          C63   1.388       .  A
C62         C206   1.470       .  S
C63          H65   1.082       .  S
N66          N67   1.319       .  A
N66          C70   1.340       .  A
N67          C68   1.349       .  A
C68          C69   1.389       .  A
C68          H71   1.082       .  S
C69          C70   1.384       .  A
C69         C265   1.479       .  S
C70          H72   1.082       .  S
N73          N74   1.324       .  A
N73          C77   1.344       .  A
N73         Cu81   2.065       .  S
N74          C75   1.348       .  A
N74         Cu80   2.096       .  S
C75          C76   1.385       .  A
C75          H78   1.082       .  S
C76          C77   1.379       .  A
C76         C189   1.470       .  S
C77          H79   1.082       .  S
Cu80         N83   2.096       .  S
Cu81         N91   2.066       .  S
Cu82         N84   2.071       .  S
Cu82         N90   2.069       .  S
N83          N84   1.323       .  A
N83          C87   1.350   1_565  A
N84          C85   1.344       .  A
C85          C86   1.382   1_565  A
C85          H88   1.082       .  S
C86          C87   1.388       .  A
C86         C165   1.478       .  S
C87          H89   1.082       .  S
N90          N91   1.320       .  A
N90          C94   1.341       .  A
N91          C92   1.346       .  A
C92          C93   1.388       .  A
C92          H95   1.082       .  S
C93          C94   1.386       .  A
C93         C257   1.481       .  S
C94          H96   1.082       .  S
N97          N98   1.320       .  A
N97         C101   1.340       .  A
N97        Cu105   2.051   1_455  S
N98          C99   1.351       .  A
N98        Cu104   2.087       .  S
C99         C100   1.388       .  A
C99         H102   1.082       .  S
C100        C101   1.376       .  A
C100        C220   1.468       .  S
C101        H103   1.082   1_455  S
Cu104       N107   2.089       .  S
Cu105       N115   2.047       .  S
Cu106       N108   2.086       .  S
Cu106       N114   2.082       .  S
N107        N108   1.327       .  A
N107        C111   1.347       .  A
N108        C109   1.344       .  A
C109        C110   1.382       .  A
C109        H112   1.082       .  S
C110        C111   1.383       .  A
C110        C158   1.473       .  S
C111        H113   1.082       .  S
N114        N115   1.318   1_455  A
N114        C118   1.350   1_455  A
N115        C116   1.336       .  A
C116        C117   1.383       .  A
C116        H119   1.080       .  S
C117        C118   1.394       .  A
C117        C249   1.485       .  S
C118        H120   1.082   1_655  S
N121        N122   1.324       .  A
N121        C125   1.346       .  A
N121       Cu129   2.071       .  S
N122        C123   1.348       .  A
N122       Cu128   2.098       .  S
C123        C124   1.388       .  A
C123        H126   1.082       .  S
C124        C125   1.381       .  A
C124        C196   1.476       .  S
C125        H127   1.082       .  S
Cu128       N131   2.097       .  S
Cu129       N139   2.068   1_455  S
Cu130       N132   2.057   1_655  S
Cu130       N138   2.061       .  S
N131        N132   1.322       .  A
N131        C135   1.350       .  A
N132        C133   1.341       .  A
C133        C134   1.379       .  A
C133        H136   1.082   1_455  S
C134        C135   1.388       .  A
C134        C172   1.471       .  S
C135        H137   1.082       .  S
N138        N139   1.320       .  A
N138        C142   1.345       .  A
N139        C140   1.342       .  A
C140        C141   1.384       .  A
C140        H143   1.082       .  S
C141        C142   1.384       .  A
C141        C241   1.474       .  S
C142        H144   1.082       .  S
N145        N146   1.322       .  A
N145        C149   1.342       .  A
N145       Cu153   2.079       .  S
N146        C147   1.348       .  A
N146       Cu152   2.067       .  S
C147        C148   1.382       .  A
C147        H150   1.082       .  S
C148        C149   1.384       .  A
C149        H151   1.082       .  S
Cu152       N155   2.068       .  S
Cu153       N163   2.078       .  S
Cu154       N156   2.087       .  S
Cu154       N162   2.087       .  S
N155        N156   1.324       .  A
N155        C159   1.343       .  A
N156        C157   1.347       .  A
C157        C158   1.385       .  A
C157        H160   1.082       .  S
C158        C159   1.381       .  A
C159        H161   1.082       .  S
N162        N163   1.322       .  A
N162        C166   1.347       .  A
N163        C164   1.347       .  A
C164        C165   1.384       .  A
C164        H167   1.082       .  S
C165        C166   1.387       .  A
C166        H168   1.082       .  S
N169        N170   1.321       .  A
N169        C173   1.344       .  A
N169       Cu177   2.071   1_455  S
N170        C171   1.347       .  A
N170       Cu176   2.081       .  S
C171        C172   1.385       .  A
C171        H174   1.082       .  S
C172        C173   1.384       .  A
C173        H175   1.082   1_455  S
Cu176       N179   2.083       .  S
Cu177       N187   2.069       .  S
Cu178       N180   2.081   1_655  S
Cu178       N186   2.083       .  S
N179        N180   1.323       .  A
N179        C183   1.344       .  A
N180        C181   1.348       .  A
C181        C182   1.385       .  A
C181        H184   1.082   1_455  S
C182        C183   1.385       .  A
C183        H185   1.082       .  S
N186        N187   1.323       .  A
N186        C190   1.347       .  A
N187        C188   1.345       .  A
C188        C189   1.380       .  A
C188        H191   1.082       .  S
C189        C190   1.385       .  A
C190        H192   1.082       .  S
N193        N194   1.324       .  A
N193        C197   1.350       .  A
N193       Cu201   2.104       .  S
N194        C195   1.345       .  A
N194       Cu200   2.070       .  S
C195        C196   1.380       .  A
C195        H198   1.082       .  S
C196        C197   1.388       .  A
C197        H199   1.082       .  S
Cu200       N203   2.069       .  S
Cu201       N211   2.104       .  S
Cu202       N204   2.059       .  S
Cu202       N210   2.060       .  S
N203        N204   1.319       .  A
N203        C207   1.341       .  A
N204        C205   1.346       .  A
C205        C206   1.384       .  A
C205        H208   1.082       .  S
C206        C207   1.385       .  A
C207        H209   1.082       .  S
N210        N211   1.324       .  A
N210        C214   1.340       .  A
N211        C212   1.352       .  A
C212        C213   1.390       .  A
C212        H215   1.082       .  S
C213        C214   1.378       .  A
C214        H216   1.082       .  S
N217        N218   1.321       .  A
N217        C221   1.345       .  A
N217       Cu225   2.081       .  S
N218        C219   1.347       .  A
N218       Cu224   2.070   1_455  S
C219        C220   1.383       .  A
C219        H222   1.082       .  S
C220        C221   1.385       .  A
C221        H223   1.082       .  S
Cu224       N227   2.070       .  S
Cu225       N235   2.081   1_455  S
Cu226       N228   2.088       .  S
Cu226       N234   2.089       .  S
N227        N228   1.323       .  A
N227        C231   1.341       .  A
N228        C229   1.350       .  A
C229        C230   1.388       .  A
C229        H232   1.082       .  S
C230        C231   1.381       .  A
C231        H233   1.082       .  S
N234        N235   1.324       .  A
N234        C238   1.345       .  A
N235        C236   1.349   1_655  A
C236        C237   1.384   1_455  A
C236        H239   1.082       .  S
C237        C238   1.386       .  A
C238        H240   1.082       .  S
C241        C242   1.406       .  A
C241        C246   1.399       .  A
C242        C243   1.400       .  A
C242        H251   1.083       .  S
C243        C244   1.403       .  A
C243        H252   1.083       .  S
C244        C250   1.408       .  A
C244        C245   1.415       .  A
C245        C247   1.396       .  A
C245        C246   1.400       .  A
C246        H253   1.085       .  S
C247        C248   1.391       .  A
C247        H254   1.084       .  S
C248        C249   1.409       .  A
C248        H255   1.080       .  S
C249        C250   1.408       .  A
C250        H256   1.084       .  S
C257        C258   1.405       .  A
C257        C262   1.409       .  A
C258        C259   1.395       .  A
C258        H267   1.083       .  S
C259        C260   1.401       .  A
C259        H268   1.084       .  S
C260        C266   1.401       .  A
C260        C261   1.413       .  A
C261        C263   1.404       .  A
C261        C262   1.406       .  A
C262        H269   1.083       .  S
C263        C264   1.400       .  A
C263        H270   1.083       .  S
C264        C265   1.404       .  A
C264        H271   1.083       .  S
C265        C266   1.405       .  A
C266        H272   1.084       .  S
C273        C274   1.402       .  A
C273        C278   1.408       .  A
C274        C275   1.395       .  A
C274        H283   1.083       .  S
C275        C276   1.403       .  A
C275        H284   1.084       .  S
C276        C282   1.399       .  A
C276        C277   1.412       .  A
C277        C279   1.405       .  A
C277        C278   1.405       .  A
C278        H285   1.084       .  S
C279        C280   1.402       .  A
C279        H286   1.084       .  S
C280        C281   1.404       .  A
C280        H287   1.082       .  S
C281        C282   1.409       .  A
C282        H288   1.083       .  S
