geometry optimzed in LAMMPS
_audit_creation_date              2020-11-30 
_audit_creation_method            'lammps2cif' 
_symmetry_space_group_name_H-M    'P1' 
_symmetry_Int_Tables_number       1 
_symmetry_cell_setting            triclinic 
loop_ 
_symmetry_equiv_pos_as_xyz 
  x,y,z 
_cell_length_a                    23.851568536630186 
_cell_length_b                    47.99535467660218 
_cell_length_c                    36.654058329168514 
_cell_angle_alpha                 89.9799660847082 
_cell_angle_beta                  108.24421297687564 
_cell_angle_gamma                 91.15774738486584 
loop_ 
_atom_site_label 
_atom_site_type_symbol 
_atom_site_fract_x 
_atom_site_fract_y 
_atom_site_fract_z 
_atom_site_charge 
C1          C  0.66009609  0.30353533  0.59949554     0.04280
C2          C  0.70123292  0.29926987  0.58000209    -0.11870
C3          C  0.68183122  0.29259145  0.54075747     0.01780
C4          C  0.62123905  0.29015621  0.52102018    -0.10400
C5          C  0.58009460  0.29445602  0.54050921     0.04270
C6          C  0.59956334  0.30111213  0.57973421    -0.09820
H7          H  0.74810520  0.30143003  0.59520261     0.09870
H8          H  0.60617996  0.28524809  0.49056309     0.07390
H9          H  0.56770365  0.30478556  0.59470494     0.07240
N10         N  0.76754855  0.43168257  0.86195130    -0.26140
N11         N  0.76344363  0.43256155  0.82522457    -0.34000
C12         C  0.76628319  0.45918337  0.81473478     0.02200
C13         C  0.77243934  0.47624031  0.84637378     0.08220
C14         C  0.77314342  0.45790753  0.87590266    -0.04870
H15         H  0.76293299  0.46540604  0.78580976     0.08890
H16         H  0.77646051  0.46310646  0.90521175     0.10090
Cu17       Cu  0.75099362  0.39789356  0.79002524     0.44170
Cu18       Cu  0.76275294  0.39449018  0.88985565     0.41990
Cu19       Cu  0.73825721  0.33082366  0.83037796     0.43880
N20         N  0.73389433  0.36147566  0.75812828    -0.33530
N21         N  0.72893193  0.33667677  0.77267328    -0.27780
C22         C  0.71528544  0.31759391  0.74414041    -0.03880
C23         C  0.71175151  0.33123343  0.71033050     0.08330
C24         C  0.72361963  0.35893295  0.72008162     0.02130
H25         H  0.70735933  0.29563184  0.74766457     0.09780
H26         H  0.72353076  0.37608564  0.70089756     0.08860
N27         N  0.74636607  0.33163630  0.88846468    -0.34980
N28         N  0.75470638  0.35454862  0.90970188    -0.27160
C29         C  0.75625751  0.34768914  0.94555118    -0.02400
C30         C  0.74861433  0.31905566  0.94716087     0.06210
C31         C  0.74260055  0.30961878  0.91034169     0.04310
H32         H  0.76265847  0.36259926  0.96868182     0.09410
H33         H  0.73487662  0.28838436  0.89982912     0.08250
C34         C  0.66581035  0.77023137  0.60190497     0.04280
C35         C  0.70696239  0.77461749  0.58222982    -0.11870
C36         C  0.68772643  0.78172116  0.54325090     0.01780
C37         C  0.62730027  0.78446580  0.52396925    -0.10400
C38         C  0.58613464  0.78004607  0.54363146     0.04270
C39         C  0.60542993  0.77296372  0.58259216    -0.09820
H40         H  0.75368031  0.77222230  0.59707135     0.09870
H41         H  0.61234364  0.78969004  0.49370242     0.07390
H42         H  0.57351781  0.76919739  0.59768604     0.07240
N43         N  0.76823448  0.64174296  0.86251161    -0.26140
N44         N  0.76475858  0.64092023  0.82587873    -0.34000
C45         C  0.76754372  0.61438348  0.81527004     0.02200
C46         C  0.77299126  0.59732713  0.84672187     0.08220
C47         C  0.77335171  0.61556998  0.87627017    -0.04870
H48         H  0.76469281  0.60820004  0.78639345     0.08890
H49         H  0.77611293  0.61032846  0.90546105     0.10090
Cu50       Cu  0.75330624  0.67547638  0.79091334     0.44170
Cu51       Cu  0.76341993  0.67872113  0.89065503     0.41990
Cu52       Cu  0.74168594  0.74215084  0.83190044     0.43880
N53         N  0.73733978  0.71178206  0.75940858    -0.33530
N54         N  0.73285299  0.73642937  0.77423621    -0.27780
C55         C  0.71990480  0.75546034  0.74597128    -0.03880
C56         C  0.71631856  0.74195955  0.71202577     0.08330
C57         C  0.72743517  0.71437930  0.72142024     0.02130
H58         H  0.71244991  0.77727950  0.74976054     0.09780
H59         H  0.72707091  0.69733068  0.70203173     0.08860
N60         N  0.74868348  0.74132142  0.88979192    -0.34980
N61         N  0.75592853  0.71846887  0.91079783    -0.27160
C62         C  0.75691889  0.72526976  0.94656805    -0.02400
C63         C  0.75008521  0.75380342  0.94835116     0.06210
C64         C  0.74510917  0.76324208  0.91173120     0.04310
H65         H  0.76243462  0.71040415  0.96953924     0.09410
H66         H  0.73820587  0.78439942  0.90138779     0.08250
C67         C  0.82879302  0.80384092  0.42632800     0.04280
C68         C  0.78781014  0.79949103  0.44613881    -0.11870
C69         C  0.80727384  0.79262865  0.48519823     0.01780
C70         C  0.86776663  0.79008876  0.50443080    -0.10400
C71         C  0.90877223  0.79447162  0.48463645     0.04270
C72         C  0.88924598  0.80131437  0.44559070    -0.09820
H73         H  0.74103474  0.80172464  0.43133275     0.09870
H74         H  0.88289451  0.78504490  0.53475570     0.07390
H75         H  0.92102613  0.80505103  0.43038856     0.07240
N76         N  0.72142955  0.93113660  0.16455370    -0.26140
N77         N  0.72554787  0.93211331  0.20128485    -0.34000
C78         C  0.72255780  0.95868365  0.21169759     0.02200
C79         C  0.71624824  0.97558952  0.17999763     0.08220
C80         C  0.71567009  0.95723291  0.15052886    -0.04870
H81         H  0.72599359  0.96501130  0.24061810     0.08890
H82         H  0.71217965  0.96234166  0.12118062     0.10090
Cu83       Cu  0.73801898  0.89769241  0.23655016     0.44170
Cu84       Cu  0.72624879  0.89407083  0.13661969     0.41990
Cu85       Cu  0.74953573  0.83084720  0.19579449     0.43880
N86         N  0.75483168  0.86149962  0.26828019    -0.33530
N87         N  0.75928526  0.83680766  0.25355668    -0.27780
C88         C  0.77287771  0.81789966  0.28197723    -0.03880
C89         C  0.77692031  0.83152683  0.31591179     0.08330
C90         C  0.76539175  0.85905139  0.30634796     0.02130
H91         H  0.78044271  0.79607887  0.27828972     0.09780
H92         H  0.76590551  0.87616633  0.32566706     0.08860
N93         N  0.74173159  0.83151332  0.13776665    -0.34980
N94         N  0.73396426  0.85430906  0.11662653    -0.27160
C95         C  0.73269021  0.84745482  0.08082189    -0.02400
C96         C  0.73987911  0.81894494  0.07915079     0.06210
C97         C  0.74535020  0.80957003  0.11587063     0.04310
H98         H  0.72677386  0.86227010  0.05775422     0.09410
H99         H  0.75268100  0.78844978  0.12630751     0.08250
C100        C  0.82397376  0.27053693  0.42515142     0.04280
C101        C  0.78273226  0.27487462  0.44454359    -0.11870
C102        C  0.80200076  0.28185289  0.48369287     0.01780
C103        C  0.86255893  0.28451705  0.50343090    -0.10400
C104        C  0.90380158  0.28014526  0.48403965     0.04270
C105        C  0.88446758  0.27319056  0.44491346    -0.09820
H106        H  0.73589233  0.27253274  0.42934691     0.09870
H107        H  0.87751944  0.28964788  0.53382019     0.07390
H108        H  0.91641049  0.26945899  0.43002551     0.07240
N109        N  0.72055838  0.14117117  0.16384535    -0.26140
N110        N  0.72440833  0.14036265  0.20053658    -0.34000
C111        C  0.72159496  0.11375689  0.21110972     0.02200
C112        C  0.71568613  0.09664376  0.17956123     0.08220
C113        C  0.71515474  0.11491940  0.15000583    -0.04870
H114        H  0.72485620  0.10757537  0.24003802     0.08890
H115        H  0.71194598  0.10966720  0.12073102     0.10090
Cu116      Cu  0.73625483  0.17511061  0.23555533     0.44170
Cu117      Cu  0.72527535  0.17829772  0.13576546     0.41990
Cu118      Cu  0.74842709  0.24208919  0.19481676     0.43880
N119        N  0.75237667  0.21166696  0.26715953    -0.33530
N120        N  0.75710925  0.23643160  0.25245435    -0.27780
C121        C  0.77007610  0.25564617  0.28080337    -0.03880
C122        C  0.77340281  0.24213236  0.31466557     0.08330
C123        C  0.76212650  0.21436582  0.30513743     0.02130
H124        H  0.77770485  0.27761642  0.27712815     0.09780
H125        H  0.76227897  0.19727864  0.32443333     0.08860
N126        N  0.74096782  0.24116433  0.13684306    -0.34980
N127        N  0.73308495  0.21820678  0.11573038    -0.27160
C128        C  0.73175771  0.22501669  0.07990278    -0.02400
C129        C  0.73907018  0.25366698  0.07818399     0.06210
C130        C  0.74466776  0.26315885  0.11491801     0.04310
H131        H  0.72570798  0.21006393  0.05685995     0.09410
H132        H  0.75201570  0.28442119  0.12534371     0.08250
C133        C  0.32979538  0.77036550  0.42715139     0.04280
C134        C  0.39026741  0.77304280  0.44697537    -0.11870
C135        C  0.40950120  0.78010238  0.48606771     0.01780
C136        C  0.36817921  0.78456550  0.50536852    -0.10400
C137        C  0.30763882  0.78188718  0.48558357     0.04270
C138        C  0.28846663  0.77479684  0.44646073    -0.09820
H139        H  0.42227781  0.76925309  0.43215892     0.09870
H140        H  0.38306695  0.78978552  0.53572989     0.07390
H141        H  0.24164279  0.77245530  0.43122093     0.07240
N142        N  0.22533329  0.64229288  0.16429870    -0.26140
N143        N  0.22854022  0.64107415  0.20087958    -0.34000
C144        C  0.22437643  0.61434843  0.21065320     0.02200
C145        C  0.21829679  0.59768775  0.17869420     0.08220
C146        C  0.21919156  0.61623011  0.14977272    -0.04870
H147        H  0.22713237  0.60765130  0.23931936     0.08890
H148        H  0.21580587  0.61125561  0.12037508     0.10090
Cu149      Cu  0.24125007  0.67550908  0.23662984     0.44170
Cu150      Cu  0.23101502  0.67964227  0.13700439     0.41990
Cu151      Cu  0.25740453  0.74276738  0.19696677     0.43880
N152        N  0.25865598  0.71192403  0.26866375    -0.33530
N153        N  0.26494706  0.73668185  0.25439930    -0.27780
C154        C  0.27820637  0.75571077  0.28299141    -0.03880
C155        C  0.28009776  0.74210850  0.31655022     0.08330
C156        C  0.26767735  0.71446514  0.30659385     0.02130
H157        H  0.28688831  0.77762438  0.27967854     0.09780
H158        H  0.26648342  0.69734583  0.32557266     0.08860
N159        N  0.24895043  0.74234652  0.13879955    -0.34980
N160        N  0.23930080  0.71957153  0.11725696    -0.27160
C161        C  0.23668382  0.72656953  0.08126870    -0.02400
C162        C  0.24517718  0.75518145  0.07985647     0.06210
C163        C  0.25278480  0.76441955  0.11702423     0.04310
H164        H  0.22984889  0.71168400  0.05807781     0.09410
H165        H  0.26048838  0.78560664  0.12770271     0.08250
C166        C  0.32388068  0.30504671  0.42485093     0.04280
C167        C  0.38423239  0.30224499  0.44418194    -0.11870
C168        C  0.40344065  0.29498291  0.48307332     0.01780
C169        C  0.36221826  0.29044730  0.50265997    -0.10400
C170        C  0.30181040  0.29325283  0.48337146     0.04270
C171        C  0.28265161  0.30054163  0.44444791    -0.09820
H172        H  0.41619921  0.30608230  0.42914872     0.09870
H173        H  0.37711723  0.28507117  0.53287518     0.07390
H174        H  0.23595012  0.30297277  0.42959246     0.07240
N175        N  0.21685684  0.43234050  0.16243554    -0.26140
N176        N  0.22237667  0.43362796  0.19938610    -0.34000
C177        C  0.22072402  0.46034944  0.20966070     0.02200
C178        C  0.21397345  0.47693452  0.17767462     0.08220
C179        C  0.21181729  0.45837295  0.14818764    -0.04870
H180        H  0.22578728  0.46712458  0.23867128     0.08890
H181        H  0.20717828  0.46332957  0.11861268     0.10090
Cu182      Cu  0.23540087  0.39940005  0.23507627     0.44170
Cu183      Cu  0.21879714  0.39498697  0.13437105     0.41990
Cu184      Cu  0.25475386  0.33309297  0.19554313     0.43880
N185        N  0.25360151  0.36333677  0.26708246    -0.33530
N186        N  0.26122139  0.33891141  0.25283017    -0.27780
C187        C  0.27446983  0.32003124  0.28128158    -0.03880
C188        C  0.27500393  0.33338243  0.31475448     0.08330
C189        C  0.26178226  0.36073388  0.30489310     0.02130
H190        H  0.28398433  0.29840795  0.27793235     0.09780
H191        H  0.25944016  0.37763585  0.32385636     0.08860
N192        N  0.24328408  0.33322433  0.13701349    -0.34980
N193        N  0.22843500  0.35534657  0.11478394    -0.27160
C194        C  0.22373521  0.34812275  0.07849693    -0.02400
C195        C  0.23687546  0.32020392  0.07784445     0.06210
C196        C  0.24912511  0.31145507  0.11548986     0.04310
H197        H  0.21319791  0.36240687  0.05457930     0.09410
H198        H  0.26110504  0.29075419  0.12648911     0.08250
C199        C  0.16525365  0.80494230  0.60081530     0.04280
C200        C  0.10477427  0.80213778  0.58106621    -0.11870
C201        C  0.08549705  0.79487708  0.54204008     0.01780
C202        C  0.12678455  0.79034013  0.52273434    -0.10400
C203        C  0.18732880  0.79314687  0.54244410     0.04270
C204        C  0.20654202  0.80043620  0.58149820    -0.09820
H205        H  0.07279082  0.80598228  0.59588519     0.09870
H206        H  0.11186441  0.78496741  0.49242248     0.07390
H207        H  0.25336746  0.80287796  0.59667551     0.07240
N208        N  0.26829307  0.93384377  0.86290683    -0.26140
N209        N  0.26497665  0.93500979  0.82630258    -0.34000
C210        C  0.26826288  0.96174551  0.81631206     0.02200
C211        C  0.27385798  0.97846787  0.84814434     0.08220
C212        C  0.27361871  0.95995133  0.87722508    -0.04870
H213        H  0.26519462  0.96839966  0.78757809     0.08890
H214        H  0.27686123  0.96497409  0.90658519     0.10090
Cu215      Cu  0.25312842  0.90049189  0.79076084     0.44170
Cu216      Cu  0.26375471  0.89650402  0.89052198     0.41990
Cu217      Cu  0.23866143  0.83324986  0.83089464     0.43880
N218        N  0.23635282  0.86397965  0.75892870    -0.33530
N219        N  0.23067315  0.83921902  0.77338075    -0.27780
C220        C  0.21759551  0.82010325  0.74490322    -0.03880
C221        C  0.21517548  0.83365101  0.71121623     0.08330
C222        C  0.22710474  0.86135391  0.72098250     0.02130
H223        H  0.20936321  0.79816508  0.74837922     0.09780
H224        H  0.22778018  0.87845206  0.70186413     0.08860
N225        N  0.24725148  0.83373567  0.88907434    -0.34980
N226        N  0.25645085  0.85655184  0.91051760    -0.27160
C227        C  0.25919685  0.84957021  0.94653753    -0.02400
C228        C  0.25124527  0.82092878  0.94806084     0.06210
C229        C  0.24383665  0.81165587  0.91093726     0.04310
H230        H  0.26566463  0.86448170  0.96966303     0.09410
H231        H  0.23650205  0.79044176  0.90033934     0.08250
C232        C  0.16007015  0.27027960  0.59981463     0.04280
C233        C  0.09970061  0.27297307  0.58045742    -0.11870
C234        C  0.08045195  0.28008973  0.54151524     0.01780
C235        C  0.12165117  0.28458909  0.52190167    -0.10400
C236        C  0.18207959  0.28189362  0.54121759     0.04270
C237        C  0.20127918  0.27474867  0.58019320    -0.09820
H238        H  0.06775195  0.26915992  0.59551145     0.09870
H239        H  0.10672079  0.28985189  0.49164773     0.07390
H240        H  0.24799773  0.27240182  0.59507209     0.07240
N241        N  0.26949833  0.14375892  0.86297730    -0.26140
N242        N  0.26405592  0.14240774  0.82604288    -0.34000
C243        C  0.26660396  0.11570241  0.81598344     0.02200
C244        C  0.27387836  0.09919614  0.84810063     0.08220
C245        C  0.27538958  0.11778571  0.87743341    -0.04870
H246        H  0.26182367  0.10887399  0.78703475     0.08890
H247        H  0.28019627  0.11288787  0.90704894     0.10090
Cu248      Cu  0.25005273  0.17652668  0.79012712     0.44170
Cu249      Cu  0.26639239  0.18110732  0.89074091     0.41990
Cu250      Cu  0.22898089  0.24277169  0.82923601     0.43880
N251        N  0.23102112  0.21247240  0.75791758    -0.33530
N252        N  0.22277556  0.23686170  0.77200455    -0.27780
C253        C  0.20918672  0.25565217  0.74344209    -0.03880
C254        C  0.20908996  0.24228152  0.71007332     0.08330
C255        C  0.22291755  0.21501119  0.72010834     0.02130
H256        H  0.19917785  0.27722685  0.74664934     0.09780
H257        H  0.22575438  0.19811764  0.70126586     0.08860
N258        N  0.24046163  0.24273139  0.88777037    -0.34980
N259        N  0.25579113  0.22068942  0.91010192    -0.27160
C260        C  0.26043516  0.22794736  0.94636469    -0.02400
C261        C  0.24678263  0.25580767  0.94690907     0.06210
C262        C  0.23426757  0.26448446  0.90921164     0.04310
H263        H  0.27136662  0.21372369  0.97035178     0.09410
H264        H  0.22192996  0.28513204  0.89812721     0.08250
C265        C  0.19369231  0.25364887  0.67205365    -0.12120
C266        C  0.17929432  0.26185504  0.63940887    -0.13680
C267        C  0.26587150  0.02416500  0.87979866    -0.12200
C268        C  0.27689640  0.00938816  0.84970366     0.09950
C269        C  0.28949513  0.02447850  0.82026093    -0.12200
C270        C  0.28946909  0.05353447  0.82024857    -0.12200
C271        C  0.27691108  0.06835448  0.84969660     0.09950
C272        C  0.26590615  0.05336694  0.87980324    -0.12200
H273        H  0.25583497  0.01323760  0.90289429     0.13940
H274        H  0.29941862  0.01391998  0.79702444     0.13940
H275        H  0.29937286  0.06432558  0.79701359     0.13940
H276        H  0.25588433  0.06411369  0.90288441     0.13940
C277        C  0.18462213  0.81355455  0.64049309    -0.12120
C278        C  0.19931651  0.82196403  0.67318398    -0.13680
C279        C  0.27672230  0.28081820  0.04934559    -0.12200
C280        C  0.23917484  0.30363644  0.04436798     0.09950
C281        C  0.20428785  0.31068794  0.00709615    -0.12200
C282        C  0.20691113  0.29521423  0.97539363    -0.12200
C283        C  0.24446043  0.27239287  0.98037189     0.09950
C284        C  0.27936148  0.26535198  0.01764657    -0.12200
H285        H  0.30470791  0.27514544  0.07769675     0.13940
H286        H  0.17444951  0.32797914  0.00246643     0.13940
H287        H  0.17892448  0.30088760  0.94704380     0.13940
H288        H  0.30922382  0.24807070  0.02228982     0.13940
C289        C  0.25959115  0.28919757  0.50372500    -0.12120
C290        C  0.22428411  0.28592604  0.52084793    -0.13680
C291        C  0.30469592  0.31360929  0.38531291    -0.12120
C292        C  0.29032943  0.32191585  0.35271659    -0.13680
C293        C  0.23133739  0.77594213  0.97739946    -0.12200
C294        C  0.24990617  0.80406659  0.98181314     0.09950
C295        C  0.26686776  0.81595991  0.01882375    -0.12200
C296        C  0.26523251  0.80016760  0.05054372    -0.12200
C297        C  0.24663796  0.77204434  0.04612618     0.09950
C298        C  0.22969583  0.76015233  0.00911431    -0.12200
H299        H  0.21743783  0.76604118  0.94940533     0.13940
H300        H  0.28192840  0.83745025  0.02355618     0.13940
H301        H  0.27911129  0.81006975  0.07853679     0.13940
H302        H  0.21462623  0.73866528  0.00436579     0.13940
C303        C  0.22462509  0.55194733  0.14662711    -0.12200
C304        C  0.21417059  0.56678548  0.17686717     0.09950
C305        C  0.20106514  0.55176252  0.20618671    -0.12200
C306        C  0.20004286  0.52270083  0.20593767    -0.12200
C307        C  0.21203006  0.50780699  0.17634466     0.09950
C308        C  0.22353658  0.52273934  0.14635992    -0.12200
H309        H  0.23502145  0.56281978  0.12361768     0.13940
H310        H  0.19154962  0.56237693  0.22952822     0.13940
H311        H  0.18977983  0.51196363  0.22908625     0.13940
H312        H  0.23314124  0.51193322  0.12317254     0.13940
C313        C  0.22970679  0.78911213  0.52240943    -0.12120
C314        C  0.26522315  0.78587536  0.50560161    -0.13680
C315        C  0.31048072  0.76195002  0.38739695    -0.12120
C316        C  0.29586857  0.75367814  0.35464373    -0.13680
C317        C  0.96602289  0.28162955  0.50451671    -0.12120
C318        C  0.01826029  0.28161072  0.52138522    -0.13680
C319        C  0.80450611  0.26218609  0.38538727    -0.12120
C320        C  0.78958886  0.25388199  0.35265338    -0.13680
C321        C  0.71400646  0.02161615  0.21181925    -0.12200
C322        C  0.71363142  0.00654025  0.17888530     0.09950
C323        C  0.71185912  0.02142448  0.14547375    -0.12200
C324        C  0.71172868  0.05063077  0.14536871    -0.12200
C325        C  0.71336498  0.06563679  0.17867186     0.09950
C326        C  0.71387676  0.05065360  0.21171499    -0.12200
H327        H  0.71473982  0.01116419  0.23807000     0.13940
H328        H  0.71128474  0.01064020  0.11945670     0.13940
H329        H  0.71104917  0.06133544  0.11927296     0.13940
H330        H  0.71452626  0.06118428  0.23789380     0.13940
C331        C  0.97102696  0.79312356  0.50469267    -0.12120
C332        C  0.02327760  0.79323820  0.52155875    -0.13680
C333        C  0.79379870  0.82012444  0.35393941    -0.12120
C334        C  0.80913312  0.81202850  0.38664272    -0.13680
C335        C  0.75532982  0.79958492  0.98244444    -0.12200
C336        C  0.74756422  0.77047057  0.98185590     0.09950
C337        C  0.73718277  0.75744278  0.01355680    -0.12200
C338        C  0.73463813  0.77315178  0.04508281    -0.12200
C339        C  0.74239046  0.80226522  0.04566071     0.09950
C340        C  0.75276918  0.81529213  0.01396250    -0.12200
H341        H  0.76407766  0.81030846  0.95876384     0.13940
H342        H  0.73028053  0.73511367  0.01394385     0.13940
H343        H  0.72590601  0.76243805  0.06877743     0.14100
H344        H  0.75967868  0.83762159  0.01357953     0.13940
C345        C  0.52393430  0.78158355  0.52351484    -0.12120
C346        C  0.47170523  0.78160297  0.50660939    -0.13680
C347        C  0.72991256  0.78561952  0.52284901    -0.12120
C348        C  0.76522513  0.78874693  0.50570738    -0.13680
C349        C  0.68517822  0.76180146  0.64149147    -0.12120
C350        C  0.70009080  0.75352685  0.67410551    -0.13680
C351        C  0.73763423  0.31521710  0.01289370    -0.12200
C352        C  0.74625269  0.30231080  0.98070199     0.09950
C353        C  0.75241134  0.27325291  0.98085285    -0.12200
C354        C  0.75003399  0.25748981  0.01242669    -0.12200
C355        C  0.74141967  0.27039763  0.04462248     0.09950
C356        C  0.73524416  0.29945578  0.04446052    -0.12200
H357        H  0.73199690  0.33749202  0.01365833     0.13940
H358        H  0.75974928  0.26261742  0.95677826     0.13940
H359        H  0.75566308  0.23521494  0.01165916     0.13940
H360        H  0.72789469  0.31010038  0.06852314     0.13940
C361        C  0.77176620  0.52230303  0.81394150    -0.12200
C362        C  0.77476845  0.50724859  0.84736437     0.09950
C363        C  0.77895690  0.52218737  0.88117560    -0.12200
C364        C  0.77908382  0.55139916  0.88125749    -0.12200
C365        C  0.77502659  0.56635617  0.84753010     0.09950
C366        C  0.77188759  0.55133842  0.81402213    -0.12200
H367        H  0.76884550  0.51183746  0.78730133     0.13940
H368        H  0.78164269  0.51142746  0.90757733     0.13940
H369        H  0.78188346  0.56213591  0.90772283     0.13940
H370        H  0.76902423  0.56182493  0.78743528     0.13940
C371        C  0.51785259  0.29317695  0.52004837    -0.12120
C372        C  0.46561926  0.29333273  0.50318529    -0.13680
C373        C  0.75963902  0.28570327  0.50377361    -0.12120
C374        C  0.72411109  0.28878039  0.52060372    -0.13680
C375        C  0.67975307  0.31158286  0.63937811    -0.12120
C376        C  0.69500081  0.31966926  0.67221930    -0.13680
loop_ 
_geom_bond_atom_site_label_1 
_geom_bond_atom_site_label_2 
_geom_bond_distance 
_geom_bond_site_symmetry_2 
_ccdc_geom_bond_type 
C1            C2   1.401       .  A
C1            C6   1.400       .  A
C1          C375   1.439       .  S
C2            C3   1.401       .  A
C2            H7   1.085       .  S
C3            C4   1.402       .  A
C3          C374   1.439       .  S
C4            C5   1.401       .  A
C4            H8   1.085       .  S
C5            C6   1.400       .  A
C5          C371   1.439       .  S
C6            H9   1.085       .  S
N10          N11   1.320       .  A
N10          C14   1.347       .  A
N10         Cu18   2.076       .  S
N11          C12   1.341       .  A
N11         Cu17   2.065       .  S
C12          C13   1.388       .  A
C12          H15   1.080       .  S
C13          C14   1.391       .  A
C13         C362   1.488       .  S
C14          H16   1.081       .  S
Cu17         N20   2.065       .  S
Cu18         N28   2.077       .  S
Cu19         N21   2.076       .  S
Cu19         N27   2.077       .  S
N20          N21   1.322       .  A
N20          C24   1.343       .  A
N21          C22   1.347       .  A
C22          C23   1.381       .  A
C22          H25   1.082       .  S
C23          C24   1.377       .  A
C23         C376   1.436       .  S
C24          H26   1.082       .  S
N27          N28   1.323       .  A
N27          C31   1.345       .  A
N28          C29   1.344       .  A
C29          C30   1.386       .  A
C29          H32   1.081       .  S
C30          C31   1.387       .  A
C30         C352   1.484       .  S
C31          H33   1.081       .  S
C34          C35   1.401       .  A
C34          C39   1.401       .  A
C34         C349   1.439       .  S
C35          C36   1.401       .  A
C35          H40   1.085       .  S
C36          C37   1.401       .  A
C36         C347   1.439       .  S
C37          C38   1.401       .  A
C37          H41   1.085       .  S
C38          C39   1.400       .  A
C38         C345   1.439       .  S
C39          H42   1.085       .  S
N43          N44   1.320       .  A
N43          C47   1.347       .  A
N43         Cu51   2.076       .  S
N44          C45   1.341       .  A
N44         Cu50   2.065       .  S
C45          C46   1.388       .  A
C45          H48   1.080       .  S
C46          C47   1.391       .  A
C46         C365   1.488       .  S
C47          H49   1.081       .  S
Cu50         N53   2.065       .  S
Cu51         N61   2.077       .  S
Cu52         N54   2.075       .  S
Cu52         N60   2.076       .  S
N53          N54   1.322       .  A
N53          C57   1.344       .  A
N54          C55   1.347       .  A
C55          C56   1.381       .  A
C55          H58   1.082       .  S
C56          C57   1.378       .  A
C56         C350   1.436       .  S
C57          H59   1.082       .  S
N60          N61   1.323       .  A
N60          C64   1.345       .  A
N61          C62   1.344       .  A
C62          C63   1.386       .  A
C62          H65   1.081       .  S
C63          C64   1.387       .  A
C63         C336   1.483       .  S
C64          H66   1.081       .  S
C67          C68   1.401       .  A
C67          C72   1.401       .  A
C67         C334   1.439       .  S
C68          C69   1.401       .  A
C68          H73   1.085       .  S
C69          C70   1.401       .  A
C69         C348   1.439       .  S
C70          C71   1.401       .  A
C70          H74   1.085       .  S
C71          C72   1.401       .  A
C71         C331   1.439       .  S
C72          H75   1.084       .  S
N76          N77   1.320       .  A
N76          C80   1.347       .  A
N76         Cu84   2.076       .  S
N77          C78   1.341       .  A
N77         Cu83   2.065       .  S
C78          C79   1.388       .  A
C78          H81   1.081       .  S
C79          C80   1.391       .  A
C79         C322   1.488   1_565  S
C80          H82   1.081       .  S
Cu83         N86   2.065       .  S
Cu84         N94   2.077       .  S
Cu85         N87   2.076       .  S
Cu85         N93   2.077       .  S
N86          N87   1.322       .  A
N86          C90   1.344       .  A
N87          C88   1.347       .  A
C88          C89   1.381       .  A
C88          H91   1.082       .  S
C89          C90   1.378       .  A
C89         C333   1.436       .  S
C90          H92   1.082       .  S
N93          N94   1.323       .  A
N93          C97   1.345       .  A
N94          C95   1.344       .  A
C95          C96   1.386       .  A
C95          H98   1.081       .  S
C96          C97   1.387       .  A
C96         C339   1.483       .  S
C97          H99   1.081       .  S
C100        C101   1.401       .  A
C100        C105   1.400       .  A
C100        C319   1.439       .  S
C101        C102   1.401       .  A
C101        H106   1.085       .  S
C102        C103   1.402       .  A
C102        C373   1.439       .  S
C103        C104   1.401       .  A
C103        H107   1.085       .  S
C104        C105   1.400       .  A
C104        C317   1.438       .  S
C105        H108   1.085       .  S
N109        N110   1.320       .  A
N109        C113   1.347       .  A
N109       Cu117   2.076       .  S
N110        C111   1.341       .  A
N110       Cu116   2.065       .  S
C111        C112   1.388       .  A
C111        H114   1.080       .  S
C112        C113   1.391       .  A
C112        C325   1.488       .  S
C113        H115   1.081       .  S
Cu116       N119   2.065       .  S
Cu117       N127   2.077       .  S
Cu118       N120   2.076       .  S
Cu118       N126   2.077       .  S
N119        N120   1.322       .  A
N119        C123   1.343       .  A
N120        C121   1.347       .  A
C121        C122   1.381       .  A
C121        H124   1.082       .  S
C122        C123   1.377       .  A
C122        C320   1.436       .  S
C123        H125   1.082       .  S
N126        N127   1.323       .  A
N126        C130   1.345       .  A
N127        C128   1.344       .  A
C128        C129   1.386       .  A
C128        H131   1.081       .  S
C129        C130   1.387       .  A
C129        C355   1.484       .  S
C130        H132   1.081       .  S
C133        C134   1.400       .  A
C133        C138   1.401       .  A
C133        C315   1.439       .  S
C134        C135   1.400       .  A
C134        H139   1.085       .  S
C135        C136   1.401       .  A
C135        C346   1.439       .  S
C136        C137   1.402       .  A
C136        H140   1.085       .  S
C137        C138   1.402       .  A
C137        C314   1.439       .  S
C138        H141   1.085       .  S
N142        N143   1.320       .  A
N142        C146   1.347       .  A
N142       Cu150   2.075       .  S
N143        C144   1.342       .  A
N143       Cu149   2.067       .  S
C144        C145   1.386       .  A
C144        H147   1.081       .  S
C145        C146   1.389       .  A
C145        C304   1.485       .  S
C146        H148   1.081       .  S
Cu149       N152   2.067       .  S
Cu150       N160   2.076       .  S
Cu151       N153   2.077       .  S
Cu151       N159   2.078       .  S
N152        N153   1.323       .  A
N152        C156   1.344       .  A
N153        C154   1.347       .  A
C154        C155   1.381       .  A
C154        H157   1.082       .  S
C155        C156   1.378       .  A
C155        C316   1.436       .  S
C156        H158   1.082       .  S
N159        N160   1.322       .  A
N159        C163   1.345       .  A
N160        C161   1.344       .  A
C161        C162   1.387       .  A
C161        H164   1.081       .  S
C162        C163   1.388       .  A
C162        C297   1.487       .  S
C163        H165   1.081       .  S
C166        C167   1.400       .  A
C166        C171   1.401       .  A
C166        C291   1.439       .  S
C167        C168   1.400       .  A
C167        H172   1.085       .  S
C168        C169   1.401       .  A
C168        C372   1.439       .  S
C169        C170   1.401       .  A
C169        H173   1.085       .  S
C170        C171   1.402       .  A
C170        C289   1.439       .  S
C171        H174   1.085       .  S
N175        N176   1.320       .  A
N175        C179   1.347       .  A
N175       Cu183   2.076       .  S
N176        C177   1.342       .  A
N176       Cu182   2.067       .  S
C177        C178   1.386       .  A
C177        H180   1.081       .  S
C178        C179   1.389       .  A
C178        C307   1.484       .  S
C179        H181   1.082       .  S
Cu182       N185   2.067       .  S
Cu183       N193   2.076       .  S
Cu184       N186   2.075       .  S
Cu184       N192   2.076       .  S
N185        N186   1.322       .  A
N185        C189   1.344       .  A
N186        C187   1.347       .  A
C187        C188   1.381       .  A
C187        H190   1.082       .  S
C188        C189   1.378       .  A
C188        C292   1.436       .  S
C189        H191   1.082       .  S
N192        N193   1.323       .  A
N192        C196   1.345       .  A
N193        C194   1.344       .  A
C194        C195   1.384       .  A
C194        H197   1.082       .  S
C195        C196   1.385       .  A
C195        C280   1.478       .  S
C196        H198   1.082       .  S
C199        C200   1.401       .  A
C199        C204   1.401       .  A
C199        C277   1.439       .  S
C200        C201   1.400       .  A
C200        H205   1.085       .  S
C201        C202   1.401       .  A
C201        C332   1.439       .  S
C202        C203   1.402       .  A
C202        H206   1.085       .  S
C203        C204   1.402       .  A
C203        C313   1.439       .  S
C204        H207   1.085       .  S
N208        N209   1.320       .  A
N208        C212   1.347       .  A
N208       Cu216   2.075       .  S
N209        C210   1.342       .  A
N209       Cu215   2.067       .  S
C210        C211   1.386       .  A
C210        H213   1.081       .  S
C211        C212   1.389       .  A
C211        C268   1.485   1_565  S
C212        H214   1.081       .  S
Cu215       N218   2.067       .  S
Cu216       N226   2.076       .  S
Cu217       N219   2.077       .  S
Cu217       N225   2.078       .  S
N218        N219   1.323       .  A
N218        C222   1.344       .  A
N219        C220   1.347       .  A
C220        C221   1.381       .  A
C220        H223   1.082       .  S
C221        C222   1.378       .  A
C221        C278   1.436       .  S
C222        H224   1.082       .  S
N225        N226   1.322       .  A
N225        C229   1.345       .  A
N226        C227   1.344       .  A
C227        C228   1.387       .  A
C227        H230   1.081       .  S
C228        C229   1.388       .  A
C228        C294   1.486       .  S
C229        H231   1.081       .  S
C232        C233   1.400       .  A
C232        C237   1.401       .  A
C232        C266   1.439       .  S
C233        C234   1.400       .  A
C233        H238   1.085       .  S
C234        C235   1.401       .  A
C234        C318   1.438       .  S
C235        C236   1.401       .  A
C235        H239   1.085       .  S
C236        C237   1.402       .  A
C236        C290   1.439       .  S
C237        H240   1.085       .  S
N241        N242   1.320       .  A
N241        C245   1.347       .  A
N241       Cu249   2.076       .  S
N242        C243   1.342       .  A
N242       Cu248   2.067       .  S
C243        C244   1.386       .  A
C243        H246   1.081       .  S
C244        C245   1.389       .  A
C244        C271   1.484       .  S
C245        H247   1.082       .  S
Cu248       N251   2.067       .  S
Cu249       N259   2.076       .  S
Cu250       N252   2.075       .  S
Cu250       N258   2.076       .  S
N251        N252   1.322       .  A
N251        C255   1.344       .  A
N252        C253   1.347       .  A
C253        C254   1.381       .  A
C253        H256   1.082       .  S
C254        C255   1.378       .  A
C254        C265   1.436       .  S
C255        H257   1.082       .  S
N258        N259   1.323       .  A
N258        C262   1.345       .  A
N259        C260   1.344       .  A
C260        C261   1.384       .  A
C260        H263   1.082       .  S
C261        C262   1.385       .  A
C261        C283   1.479       .  S
C262        H264   1.082       .  S
C265        C266   1.205       .  T
C267        C268   1.407       .  A
C267        C272   1.402       .  A
C267        H273   1.082       .  S
C268        C269   1.405       .  A
C269        C270   1.395       .  A
C269        H274   1.081       .  S
C270        C271   1.404       .  A
C270        H275   1.082       .  S
C271        C272   1.406       .  A
C272        H276   1.082       .  S
C277        C278   1.205       .  T
C279        C280   1.404       .  A
C279        C284   1.398       .  A
C279        H285   1.083       .  S
C280        C281   1.404       .  A
C281        C282   1.398   1_554  A
C281        H286   1.083       .  S
C282        C283   1.404       .  A
C282        H287   1.083       .  S
C283        C284   1.405   1_556  A
C284        H288   1.083       .  S
C289        C290   1.206       .  T
C291        C292   1.205       .  T
C293        C294   1.406       .  A
C293        C298   1.398   1_556  A
C293        H299   1.081       .  S
C294        C295   1.406   1_556  A
C295        C296   1.398       .  A
C295        H300   1.081       .  S
C296        C297   1.406       .  A
C296        H301   1.081       .  S
C297        C298   1.406       .  A
C298        H302   1.081       .  S
C303        C304   1.407       .  A
C303        C308   1.402       .  A
C303        H309   1.082       .  S
C304        C305   1.405       .  A
C305        C306   1.395       .  A
C305        H310   1.081       .  S
C306        C307   1.404       .  A
C306        H311   1.082       .  S
C307        C308   1.406       .  A
C308        H312   1.082       .  S
C313        C314   1.206       .  T
C315        C316   1.205       .  T
C317        C318   1.205   1_655  T
C319        C320   1.205       .  T
C321        C322   1.405       .  A
C321        C326   1.394       .  A
C321        H327   1.080       .  S
C322        C323   1.407       .  A
C323        C324   1.402       .  A
C323        H328   1.081       .  S
C324        C325   1.407       .  A
C324        H329   1.081       .  S
C325        C326   1.405       .  A
C326        H330   1.080       .  S
C331        C332   1.205   1_655  T
C333        C334   1.205       .  T
C335        C336   1.405       .  A
C335        C340   1.398   1_556  A
C335        H341   1.082       .  S
C336        C337   1.406   1_556  A
C337        C338   1.398       .  A
C337        H342   1.082       .  S
C338        C339   1.405       .  A
C338        H343   1.082       .  S
C339        C340   1.406       .  A
C340        H344   1.082       .  S
C345        C346   1.205       .  T
C347        C348   1.205       .  T
C349        C350   1.205       .  T
C351        C352   1.406   1_554  A
C351        C356   1.398       .  A
C351        H357   1.082       .  S
C352        C353   1.405       .  A
C353        C354   1.398   1_556  A
C353        H358   1.082       .  S
C354        C355   1.406       .  A
C354        H359   1.082       .  S
C355        C356   1.405       .  A
C356        H360   1.082       .  S
C361        C362   1.405       .  A
C361        C366   1.394       .  A
C361        H367   1.080       .  S
C362        C363   1.407       .  A
C363        C364   1.402       .  A
C363        H368   1.081       .  S
C364        C365   1.407       .  A
C364        H369   1.081       .  S
C365        C366   1.405       .  A
C366        H370   1.080       .  S
C371        C372   1.205       .  T
C373        C374   1.205       .  T
C375        C376   1.205       .  T
