geometry optimzed in LAMMPS
_audit_creation_date              2020-11-30 
_audit_creation_method            'lammps2cif' 
_symmetry_space_group_name_H-M    'P1' 
_symmetry_Int_Tables_number       1 
_symmetry_cell_setting            triclinic 
loop_ 
_symmetry_equiv_pos_as_xyz 
  x,y,z 
_cell_length_a                    24.6016778 
_cell_length_b                    30.09821550956432 
_cell_length_c                    24.32522892736608 
_cell_angle_alpha                 89.93787240546584 
_cell_angle_beta                  90.00897409522803 
_cell_angle_gamma                 90.02072775864022 
loop_ 
_atom_site_label 
_atom_site_type_symbol 
_atom_site_fract_x 
_atom_site_fract_y 
_atom_site_fract_z 
_atom_site_charge 
N1          N  0.93377484  0.95020302  0.89698312    -0.07000
N2          N  0.92409808  0.91880748  0.86039036    -0.59100
N3          N  0.89691610  0.05192379  0.93706867    -0.06700
N4          N  0.86160919  0.08422597  0.92866607    -0.61200
N5          N  0.93462137  0.05226145  0.89872336    -0.06300
N6          N  0.92572394  0.08481294  0.86343132    -0.59100
N7          N  0.89624744  0.94985077  0.93548316    -0.05900
N8          N  0.86036403  0.91815818  0.92599223    -0.61600
C9          C  0.87831582  0.89894189  0.87913383     0.95200
C10         C  0.88017128  0.10460080  0.88274002     0.95000
N11         N  0.93422931  0.05015047  0.10490587    -0.07200
N12         N  0.92453774  0.08145722  0.14163374    -0.59700
N13         N  0.89682712  0.94828509  0.06486165    -0.05300
N14         N  0.86182630  0.91567821  0.07302840    -0.60900
N15         N  0.93456325  0.94802155  0.10317686    -0.07200
N16         N  0.92599436  0.91525418  0.13823041    -0.60000
N17         N  0.89656185  0.05042953  0.06653196    -0.04900
N18         N  0.86055590  0.08194288  0.07626821    -0.61000
Mn19       Mn  0.89502032  0.00012875  0.00099124     1.18400
C20         C  0.87856971  0.10117430  0.12310248     0.97300
C21         C  0.88062057  0.89522965  0.11882204     0.97900
N22         N  0.06273272  0.05181853  0.89850123    -0.07200
N23         N  0.07201312  0.08419378  0.86306548    -0.63500
N24         N  0.09983453  0.94925478  0.93565655    -0.06000
N25         N  0.13508094  0.91704585  0.92669060    -0.64200
N26         N  0.06204311  0.94943090  0.89739307    -0.06700
N27         N  0.07080254  0.91723352  0.86160605    -0.63800
N28         N  0.10055189  0.05127610  0.93670465    -0.05600
N29         N  0.13639766  0.08315177  0.92802661    -0.64500
Mn30       Mn  0.99832112  0.00093910  0.89612193     1.10700
C31         C  0.11797089  0.10357306  0.88210382     0.98500
C32         C  0.11642489  0.89720819  0.88051569     0.98600
N33         N  0.06241717  0.94802756  0.10303980    -0.06700
N34         N  0.07127805  0.91537479  0.13820094    -0.62100
N35         N  0.10035472  0.05050981  0.06584537    -0.06100
N36         N  0.13563352  0.08277886  0.07461115    -0.58800
N37         N  0.06258775  0.05045864  0.10412617    -0.07400
N38         N  0.07139284  0.08278181  0.13971424    -0.61700
N39         N  0.10013582  0.94842348  0.06475120    -0.06400
N40         N  0.13551386  0.91618348  0.07309951    -0.58900
Mn41       Mn  0.99849849  0.99919727  0.10560152     1.20200
Mn42       Mn  0.10185602  0.99986549  0.00075493     1.10100
Cl43       Cl  0.99840164  0.00005854  0.00086090    -0.86800
C44         C  0.11690632  0.89569775  0.11889861     0.95500
C45         C  0.11700577  0.10276538  0.12070006     0.95300
N46         N  0.56237910  0.55133586  0.39819134    -0.07000
N47         N  0.57153094  0.58357547  0.36254558    -0.59100
N48         N  0.59948578  0.44894813  0.43604750    -0.06700
N49         N  0.63477271  0.41672187  0.42724412    -0.61200
N50         N  0.56186468  0.44911946  0.39761959    -0.06300
N51         N  0.57087611  0.41701295  0.36178220    -0.59100
N52         N  0.60005037  0.55114038  0.43656089    -0.05900
N53         N  0.63558495  0.58326586  0.42785001    -0.61600
C54         C  0.61718376  0.60335880  0.38165967     0.95200
C55         C  0.61638148  0.39694567  0.38091305     0.95000
N56         N  0.56159377  0.44835470  0.60361356    -0.07200
N57         N  0.57047219  0.41608679  0.63930813    -0.59700
N58         N  0.60015912  0.55053319  0.56587882    -0.05300
N59         N  0.63592639  0.58239991  0.57491162    -0.60900
N60         N  0.56257537  0.55048724  0.60433483    -0.07200
N61         N  0.57210718  0.58227922  0.64044060    -0.60000
N62         N  0.59935253  0.44842278  0.56534153    -0.04900
N63         N  0.63469771  0.41622691  0.57419305    -0.61000
Mn64       Mn  0.60138988  0.49976630  0.50094366     1.18400
C65         C  0.61608230  0.39618737  0.62031942     0.97300
C66         C  0.61785560  0.60205152  0.62144403     0.97900
N67         N  0.43347116  0.44969233  0.39757505    -0.07200
N68         N  0.42378715  0.41794530  0.36142899    -0.63500
N69         N  0.39665136  0.55185693  0.43652305    -0.06000
N70         N  0.36127986  0.58402286  0.42773957    -0.64200
N71         N  0.43440814  0.55194242  0.39824930    -0.06700
N72         N  0.42556273  0.58429880  0.36266793    -0.63800
N73         N  0.39567091  0.44994264  0.43581052    -0.05600
N74         N  0.35948923  0.41846537  0.42646190    -0.64500
Mn75       Mn  0.49804350  0.50049109  0.39613909     1.10700
C76         C  0.37760905  0.39862133  0.38008122     0.98500
C77         C  0.37992336  0.60413278  0.38170008     0.98600
N78         N  0.43424260  0.55119185  0.60414706    -0.06700
N79         N  0.42508517  0.58313895  0.64017666    -0.62100
N80         N  0.39584421  0.44929727  0.56501381    -0.06100
N81         N  0.36044294  0.41702326  0.57326818    -0.58800
N82         N  0.43360132  0.44883407  0.60329210    -0.07400
N83         N  0.42472542  0.41611782  0.63835109    -0.61700
N84         N  0.39653122  0.55131232  0.56580937    -0.06400
N85         N  0.36094589  0.58323649  0.57496167    -0.58900
Mn86       Mn  0.49797758  0.49973506  0.60563616     1.20200
Mn87       Mn  0.39457541  0.50062290  0.50081523     1.10100
Cl88       Cl  0.49800397  0.50015899  0.50088479    -0.86800
C89         C  0.37931434  0.60296733  0.62132129     0.95500
C90         C  0.37906186  0.39646685  0.61901972     0.95300
C91         C  0.14538660  0.13947443  0.14903964    -0.04200
C92         C  0.19602602  0.15460186  0.12980153    -0.10000
C93         C  0.22451137  0.18742884  0.15848158    -0.17700
C94         C  0.20265727  0.20566095  0.20653776     0.24500
C95         C  0.15175614  0.19143676  0.22535963    -0.19300
C96         C  0.12324542  0.15852175  0.19679181    -0.08200
C97         C  0.23293168  0.23834989  0.23698933    -0.14700
C98         C  0.25874150  0.26540728  0.26256766    -0.14400
C99         C  0.28943232  0.29784353  0.29300472     0.24400
C100        C  0.26775925  0.31640627  0.34094830    -0.19800
C101        C  0.29695516  0.34865208  0.36990196    -0.08300
C102        C  0.34815171  0.36283914  0.35107811    -0.04400
C103        C  0.36995689  0.34363530  0.30326977    -0.09700
C104        C  0.34073834  0.31129410  0.27443518    -0.17300
H105        H  0.21406665  0.14054543  0.09313714     0.10800
H106        H  0.26383275  0.19823420  0.14350668     0.10100
H107        H  0.13440297  0.20540405  0.26243843     0.10100
H108        H  0.08426477  0.14759107  0.21245082     0.10600
H109        H  0.22811525  0.30621871  0.35571118     0.10600
H110        H  0.27911895  0.36290509  0.40655266     0.10600
H111        H  0.40931559  0.35389345  0.28788572     0.10800
H112        H  0.35793955  0.29707750  0.23742897     0.09600
C113        C  0.14713346  0.13967911  0.85344438    -0.04200
C114        C  0.19863431  0.15356172  0.87174178    -0.10000
C115        C  0.22793079  0.18543307  0.84217167    -0.17700
C116        C  0.20597190  0.20387996  0.79422035     0.24500
C117        C  0.15417520  0.19104964  0.77653907    -0.19300
C118        C  0.12488687  0.15912047  0.80595454    -0.08200
C119        C  0.23691599  0.23532108  0.76253530    -0.14700
C120        C  0.26272383  0.26155546  0.73569409    -0.14400
C121        C  0.29324824  0.29356672  0.70447346     0.24400
C122        C  0.27096871  0.31235600  0.65687960    -0.19800
C123        C  0.29955687  0.34512498  0.62812267    -0.08300
C124        C  0.35065609  0.35957053  0.64688786    -0.04400
C125        C  0.37327367  0.33977738  0.69397407    -0.09700
C126        C  0.34469409  0.30694801  0.72257626    -0.17300
H127        H  0.21673966  0.13915563  0.90821206     0.10800
H128        H  0.26794553  0.19523765  0.85628137     0.10100
H129        H  0.13674572  0.20526316  0.73959246     0.10100
H130        H  0.08523789  0.14915944  0.79105687     0.10600
H131        H  0.23119319  0.30217570  0.64248840     0.10600
H132        H  0.28119144  0.35977784  0.59193671     0.10600
H133        H  0.41264030  0.35015285  0.70920139     0.10800
H134        H  0.36233801  0.29251990  0.75929049     0.09600
C135        C  0.35119473  0.64044464  0.35308546    -0.04200
C136        C  0.29976172  0.65439465  0.37138553    -0.10000
C137        C  0.27078366  0.68658717  0.34215504    -0.17700
C138        C  0.29297376  0.70533562  0.29453546     0.24500
C139        C  0.34471004  0.69241390  0.27674877    -0.19300
C140        C  0.37370427  0.66009495  0.30584194    -0.08200
C141        C  0.26203590  0.73699732  0.26326601    -0.14700
C142        C  0.23560333  0.76310626  0.23691646    -0.14400
C143        C  0.20445593  0.79462539  0.20563806     0.24400
C144        C  0.22671457  0.81380742  0.15831497    -0.19800
C145        C  0.19748895  0.84586874  0.12911038    -0.08300
C146        C  0.14575667  0.85927528  0.14717174    -0.04400
C147        C  0.12314292  0.83911240  0.19403164    -0.09700
C148        C  0.15237878  0.80691894  0.22308723    -0.17300
H149        H  0.28143765  0.63980300  0.40763034     0.10800
H150        H  0.23079226  0.69641253  0.35627247     0.10100
H151        H  0.36228089  0.70683457  0.23999257     0.10100
H152        H  0.41331004  0.65004396  0.29095190     0.10600
H153        H  0.26695192  0.80444321  0.14443461     0.10600
H154        H  0.21588739  0.86084968  0.09314762     0.10600
H155        H  0.08329137  0.84871529  0.20870397     0.10800
H156        H  0.13473295  0.79212911  0.25958212     0.09600
C157        C  0.64481478  0.36021068  0.35269762    -0.04200
C158        C  0.69239755  0.34191145  0.37539285    -0.10000
C159        C  0.72105421  0.30886105  0.34730331    -0.17700
C160        C  0.70253534  0.29371109  0.29624441     0.24500
C161        C  0.65463212  0.31115104  0.27385816    -0.19300
C162        C  0.62586719  0.34418012  0.30192656    -0.08200
C163        C  0.73335897  0.26108569  0.26624807    -0.14700
C164        C  0.75953137  0.23420007  0.24077282    -0.14400
C165        C  0.79053547  0.20193766  0.21036647     0.24400
C166        C  0.77224219  0.18733688  0.15898067    -0.19800
C167        C  0.80140445  0.15500696  0.13015330    -0.08300
C168        C  0.84930415  0.13690854  0.15240129    -0.04400
C169        C  0.86788792  0.15225344  0.20363733    -0.09700
C170        C  0.83861052  0.18456007  0.23244930    -0.17300
H171        H  0.70787724  0.35353732  0.41449062     0.10800
H172        H  0.75800903  0.29554289  0.36507563     0.10100
H173        H  0.63988780  0.29962359  0.23440583     0.10100
H174        H  0.58933430  0.35764015  0.28349862     0.10600
H175        H  0.73515859  0.20061565  0.14143792     0.10600
H176        H  0.78616143  0.14386710  0.09074497     0.10600
H177        H  0.90461999  0.13889369  0.22176875     0.10800
H178        H  0.85318343  0.19566643  0.27215132     0.09600
C179        C  0.84944339  0.86285925  0.85011932    -0.04200
C180        C  0.80349526  0.84270588  0.87384006    -0.10000
C181        C  0.77486676  0.80984237  0.84531886    -0.17700
C182        C  0.79172672  0.79686358  0.79276803     0.24500
C183        C  0.83782116  0.81637653  0.76918753    -0.19300
C184        C  0.86659768  0.84912949  0.79770483    -0.08200
C185        C  0.76122585  0.76415075  0.76259518    -0.14700
C186        C  0.73548419  0.73704054  0.73703573    -0.14400
C187        C  0.70478163  0.70437211  0.70699838     0.24400
C188        C  0.72154401  0.69115836  0.65450440    -0.19800
C189        C  0.69273163  0.65828717  0.62617830    -0.08300
C190        C  0.64671101  0.63835616  0.65005122    -0.04400
C191        C  0.62959432  0.65239526  0.70234862    -0.08900
C192        C  0.65855366  0.68514723  0.73067020    -0.17300
H193        H  0.78944705  0.85256779  0.91420825     0.10800
H194        H  0.73930211  0.79489642  0.86400376     0.10100
H195        H  0.85122898  0.80657047  0.72855665     0.10100
H196        H  0.90177834  0.86412859  0.77841102     0.10600
H197        H  0.75719375  0.70589863  0.63573671     0.10600
H198        H  0.70674111  0.64819626  0.58588279     0.10600
H199        H  0.59435054  0.63758570  0.72174689     0.10800
H200        H  0.64520338  0.69515309  0.77124583     0.09600
C201        C  0.85158609  0.14128418  0.85458683    -0.04200
C202        C  0.80225043  0.15764570  0.87555515    -0.10000
C203        C  0.77322167  0.19019005  0.84690186    -0.17700
C204        C  0.79319771  0.20679009  0.79708418     0.24500
C205        C  0.84296228  0.19149721  0.77663343    -0.19300
C206        C  0.87205168  0.15893210  0.80521824    -0.08200
C207        C  0.76182646  0.23843544  0.76611508    -0.14700
C208        C  0.73515670  0.26435926  0.73965955    -0.14400
C209        C  0.70371952  0.29560736  0.70814461     0.24400
C210        C  0.72394795  0.31201309  0.65833392    -0.19800
C211        C  0.69467443  0.34396230  0.62892737    -0.08300
C212        C  0.64484918  0.35994356  0.64914424    -0.04400
C213        C  0.62413654  0.34246841  0.69850285    -0.09700
C214        C  0.65346447  0.31048014  0.72783346    -0.17300
H215        H  0.78557999  0.14471872  0.91353937     0.10800
H216        H  0.73479878  0.20186985  0.86314246     0.10100
H217        H  0.85883542  0.20420687  0.73816391     0.10100
H218        H  0.91000161  0.14701540  0.78818830     0.10600
H219        H  0.76272328  0.30061591  0.64264914     0.10600
H220        H  0.71154684  0.35676404  0.59096975     0.10600
H221        H  0.58579669  0.35408730  0.71494664     0.10800
H222        H  0.63735962  0.29787125  0.76625447     0.09600
C223        C  0.14513622  0.86086884  0.85187052    -0.04200
C224        C  0.12314066  0.84165247  0.80413527    -0.10000
C225        C  0.15215410  0.80913486  0.77538493    -0.17700
C226        C  0.20339555  0.79554726  0.79401590     0.24500
C227        C  0.22509928  0.81399442  0.84199929    -0.19300
C228        C  0.19612533  0.84636587  0.87085576    -0.08200
C229        C  0.23419411  0.76322409  0.76358332    -0.14700
C230        C  0.26053851  0.73639506  0.73825085    -0.14400
C231        C  0.29148458  0.70409077  0.70793992     0.24400
C232        C  0.34259285  0.69044553  0.72687846    -0.19800
C233        C  0.37183061  0.65803887  0.69817005    -0.08300
C234        C  0.35020605  0.63900078  0.65015368    -0.04400
C235        C  0.29928598  0.65347878  0.63094487    -0.09700
C236        C  0.27009044  0.68574655  0.65975461    -0.17300
H237        H  0.08390554  0.85213369  0.78866851     0.10800
H238        H  0.13492282  0.79497785  0.73834533     0.10100
H239        H  0.26467512  0.80368815  0.85681041     0.10100
H240        H  0.21408799  0.86058591  0.90747386     0.10600
H241        H  0.35957191  0.70450643  0.76409301     0.10600
H242        H  0.41098432  0.64755117  0.71383917     0.10600
H243        H  0.28159115  0.63937546  0.59412469     0.10800
H244        H  0.23061017  0.69608342  0.64471773     0.09600
C245        C  0.64608554  0.63955884  0.35283043    -0.04200
C246        C  0.69390915  0.65780814  0.37503039    -0.10000
C247        C  0.72339626  0.68969655  0.34562869    -0.17700
C248        C  0.70542433  0.70364165  0.29378959     0.24500
C249        C  0.65710069  0.68649444  0.27210924    -0.19300
C250        C  0.62752318  0.65469926  0.30146566    -0.08200
C251        C  0.73717775  0.73463386  0.26214969    -0.14700
C252        C  0.76374054  0.76036161  0.23525209    -0.14400
C253        C  0.79502050  0.79197938  0.20408195     0.24400
C254        C  0.77644271  0.80671745  0.15280098    -0.19800
C255        C  0.80507029  0.83961128  0.12424027    -0.08300
C256        C  0.85262362  0.85809367  0.14673520    -0.04400
C257        C  0.87185552  0.84213748  0.19746831    -0.09700
C258        C  0.84314299  0.80932428  0.22598119    -0.17300
H259        H  0.70902743  0.64688038  0.41460727     0.10800
H260        H  0.76063583  0.70290557  0.36289809     0.10100
H261        H  0.64273751  0.69716891  0.23211797     0.10100
H262        H  0.59078557  0.64128937  0.28341513     0.10600
H263        H  0.73931699  0.79341136  0.13539631     0.10600
H264        H  0.78946087  0.85114416  0.08512364     0.10600
H265        H  0.90842208  0.85568883  0.21571181     0.10800
H266        H  0.85793600  0.79808343  0.26557358     0.09600
loop_ 
_geom_bond_atom_site_label_1 
_geom_bond_atom_site_label_2 
_geom_bond_distance 
_geom_bond_site_symmetry_2 
_ccdc_geom_bond_type 
N1            N2   1.320       .  A
N1            N7   1.315       .  A
N1          Mn30   2.203   1_565  S
N2            C9   1.354       .  A
N3            N5   1.316       .  A
N3            N4   1.320       .  A
N3          Mn19   2.201   1_556  S
N4           C10   1.353       .  A
N5            N6   1.320       .  A
N5          Mn30   2.202       .  S
N6           C10   1.354       .  A
N7            N8   1.320       .  A
N7          Mn19   2.199   1_566  S
N8            C9   1.353       .  A
C9          C179   1.478       .  S
C10         C201   1.477       .  S
N11          N17   1.315       .  A
N11          N12   1.321       .  A
N11         Mn41   2.203   1_545  S
N12          C20   1.354       .  A
N13          N14   1.320       .  A
N13          N15   1.315       .  A
N13         Mn19   2.201   1_565  S
N14          C21   1.354       .  A
N15          N16   1.320       .  A
N15         Mn41   2.202       .  S
N16          C21   1.354       .  A
N17          N18   1.320       .  A
N17         Mn19   2.200       .  S
N18          C20   1.353       .  A
Mn19        Cl43   2.543       .  S
C20         C168   1.478       .  S
C21         C256   1.477       .  S
N22          N23   1.320       .  A
N22          N28   1.315       .  A
N22         Mn30   2.204   1_455  S
N23          C31   1.354       .  A
N24          N26   1.315       .  A
N24          N25   1.319       .  A
N24         Mn42   2.199   1_556  S
N25          C32   1.353       .  A
N26          N27   1.321       .  A
N26         Mn30   2.205   1_465  S
N27          C32   1.354       .  A
N28          N29   1.320       .  A
N28         Mn42   2.195   1_546  S
N29          C31   1.353       .  A
Mn30        Cl43   2.548   1_556  S
C31         C113   1.476       .  S
C32         C223   1.478       .  S
N33          N34   1.320       .  A
N33          N39   1.315       .  A
N33         Mn41   2.202   1_455  S
N34          C44   1.354       .  A
N35          N36   1.320       .  A
N35          N37   1.316       .  A
N35         Mn42   2.199   1_545  S
N36          C45   1.353       .  A
N37          N38   1.321       .  A
N37         Mn41   2.206   1_445  S
N38          C45   1.354       .  A
N39          N40   1.319       .  A
N39         Mn42   2.195       .  S
N40          C44   1.353       .  A
Mn41        Cl43   2.548   1_565  S
Mn42        Cl43   2.545   1_465  S
C44         C146   1.476       .  S
C45          C91   1.478       .  S
N46          N47   1.320       .  A
N46          N52   1.315       .  A
N46         Mn75   2.202       .  S
N47          C54   1.354       .  A
N48          N50   1.315       .  A
N48          N49   1.320       .  A
N48         Mn64   2.200       .  S
N49          C55   1.353       .  A
N50          N51   1.321       .  A
N50         Mn75   2.204       .  S
N51          C55   1.354       .  A
N52          N53   1.320       .  A
N52         Mn64   2.200       .  S
N53          C54   1.353       .  A
C54         C245   1.477       .  S
C55         C157   1.478       .  S
N56          N62   1.315       .  A
N56          N57   1.320       .  A
N56         Mn86   2.201       .  S
N57          C65   1.354       .  A
N58          N59   1.320       .  A
N58          N60   1.315       .  A
N58         Mn64   2.199       .  S
N59          C66   1.353       .  A
N60          N61   1.320       .  A
N60         Mn86   2.204       .  S
N61          C66   1.354       .  A
N62          N63   1.320       .  A
N62         Mn64   2.200       .  S
N63          C65   1.353       .  A
Mn64        Cl88   2.543       .  S
C65         C212   1.477       .  S
C66         C190   1.478       .  S
N67          N68   1.321       .  A
N67          N73   1.315       .  A
N67         Mn75   2.205       .  S
N68          C76   1.354       .  A
N69          N71   1.315       .  A
N69          N70   1.319       .  A
N69         Mn87   2.196       .  S
N70          C77   1.353       .  A
N71          N72   1.320       .  A
N71         Mn75   2.203       .  S
N72          C77   1.354       .  A
N73          N74   1.320       .  A
N73         Mn87   2.198       .  S
N74          C76   1.353       .  A
Mn75        Cl88   2.548       .  S
C76         C102   1.478       .  S
C77         C135   1.476       .  S
N78          N79   1.321       .  A
N78          N84   1.315       .  A
N78         Mn86   2.205       .  S
N79          C89   1.354       .  A
N80          N81   1.320       .  A
N80          N82   1.315       .  A
N80         Mn87   2.196       .  S
N81          C90   1.353       .  A
N82          N83   1.320       .  A
N82         Mn86   2.204       .  S
N83          C90   1.354       .  A
N84          N85   1.319       .  A
N84         Mn87   2.199       .  S
N85          C89   1.353       .  A
Mn86        Cl88   2.548       .  S
Mn87        Cl88   2.545       .  S
C89         C234   1.478       .  S
C90         C124   1.476       .  S
C91          C92   1.406       .  A
C91          C96   1.406       .  A
C92          C93   1.398       .  A
C92         H105   1.083       .  S
C93          C94   1.399       .  A
C93         H106   1.083       .  S
C94          C95   1.400       .  A
C94          C97   1.440       .  S
C95          C96   1.399       .  A
C95         H107   1.083       .  S
C96         H108   1.083       .  S
C97          C98   1.206       .  T
C98          C99   1.440       .  S
C99         C100   1.399       .  A
C99         C104   1.400       .  A
C100        C101   1.398       .  A
C100        H109   1.083       .  S
C101        C102   1.406       .  A
C101        H110   1.083       .  S
C102        C103   1.406       .  A
C103        C104   1.399       .  A
C103        H111   1.083       .  S
C104        H112   1.083       .  S
C113        C114   1.406       .  A
C113        C118   1.405       .  A
C114        C115   1.398       .  A
C114        H127   1.083       .  S
C115        C116   1.400       .  A
C115        H128   1.083       .  S
C116        C117   1.399       .  A
C116        C119   1.438       .  S
C117        C118   1.397       .  A
C117        H129   1.083       .  S
C118        H130   1.083       .  S
C119        C120   1.205       .  T
C120        C121   1.438       .  S
C121        C122   1.400       .  A
C121        C126   1.399       .  A
C122        C123   1.398       .  A
C122        H131   1.083       .  S
C123        C124   1.406       .  A
C123        H132   1.083       .  S
C124        C125   1.405       .  A
C125        C126   1.397       .  A
C125        H133   1.083       .  S
C126        H134   1.083       .  S
C135        C136   1.406       .  A
C135        C140   1.406       .  A
C136        C137   1.397       .  A
C136        H149   1.083       .  S
C137        C138   1.399       .  A
C137        H150   1.083       .  S
C138        C139   1.400       .  A
C138        C141   1.437       .  S
C139        C140   1.398       .  A
C139        H151   1.083       .  S
C140        H152   1.083       .  S
C141        C142   1.204       .  T
C142        C143   1.437       .  S
C143        C144   1.399       .  A
C143        C148   1.400       .  A
C144        C145   1.397       .  A
C144        H153   1.083       .  S
C145        C146   1.406       .  A
C145        H154   1.083       .  S
C146        C147   1.406       .  A
C147        C148   1.398       .  A
C147        H155   1.083       .  S
C148        H156   1.083       .  S
C157        C158   1.406       .  A
C157        C162   1.406       .  A
C158        C159   1.398       .  A
C158        H171   1.083       .  S
C159        C160   1.400       .  A
C159        H172   1.083       .  S
C160        C161   1.400       .  A
C160        C163   1.440       .  S
C161        C162   1.399       .  A
C161        H173   1.083       .  S
C162        H174   1.083       .  S
C163        C164   1.206       .  T
C164        C165   1.440       .  S
C165        C166   1.400       .  A
C165        C170   1.400       .  A
C166        C167   1.398       .  A
C166        H175   1.083       .  S
C167        C168   1.406       .  A
C167        H176   1.083       .  S
C168        C169   1.406       .  A
C169        C170   1.399       .  A
C169        H177   1.083       .  S
C170        H178   1.083       .  S
C179        C180   1.406       .  A
C179        C184   1.406       .  A
C180        C181   1.399       .  A
C180        H193   1.083       .  S
C181        C182   1.400       .  A
C181        H194   1.083       .  S
C182        C183   1.400       .  A
C182        C185   1.439       .  S
C183        C184   1.398       .  A
C183        H195   1.083       .  S
C184        H196   1.083       .  S
C185        C186   1.206       .  T
C186        C187   1.439       .  S
C187        C188   1.400       .  A
C187        C192   1.400       .  A
C188        C189   1.399       .  A
C188        H197   1.083       .  S
C189        C190   1.406       .  A
C189        H198   1.083       .  S
C190        C191   1.406       .  A
C191        C192   1.398       .  A
C191        H199   1.083       .  S
C192        H200   1.083       .  S
C201        C202   1.406       .  A
C201        C206   1.406       .  A
C202        C203   1.398       .  A
C202        H215   1.083       .  S
C203        C204   1.399       .  A
C203        H216   1.083       .  S
C204        C205   1.400       .  A
C204        C207   1.438       .  S
C205        C206   1.398       .  A
C205        H217   1.083       .  S
C206        H218   1.083       .  S
C207        C208   1.205       .  T
C208        C209   1.438       .  S
C209        C210   1.399       .  A
C209        C214   1.400       .  A
C210        C211   1.398       .  A
C210        H219   1.083       .  S
C211        C212   1.406       .  A
C211        H220   1.083       .  S
C212        C213   1.406       .  A
C213        C214   1.398       .  A
C213        H221   1.083       .  S
C214        H222   1.083       .  S
C223        C224   1.406       .  A
C223        C228   1.406       .  A
C224        C225   1.400       .  A
C224        H237   1.083       .  S
C225        C226   1.401       .  A
C225        H238   1.083       .  S
C226        C227   1.399       .  A
C226        C229   1.439       .  S
C227        C228   1.397       .  A
C227        H239   1.083       .  S
C228        H240   1.083       .  S
C229        C230   1.206       .  T
C230        C231   1.439       .  S
C231        C232   1.401       .  A
C231        C236   1.399       .  A
C232        C233   1.399       .  A
C232        H241   1.083       .  S
C233        C234   1.406       .  A
C233        H242   1.083       .  S
C234        C235   1.406       .  A
C235        C236   1.397       .  A
C235        H243   1.083       .  S
C236        H244   1.083       .  S
C245        C246   1.406       .  A
C245        C250   1.406       .  A
C246        C247   1.399       .  A
C246        H259   1.083       .  S
C247        C248   1.400       .  A
C247        H260   1.083       .  S
C248        C249   1.399       .  A
C248        C251   1.439       .  S
C249        C250   1.398       .  A
C249        H261   1.083       .  S
C250        H262   1.083       .  S
C251        C252   1.206       .  T
C252        C253   1.439       .  S
C253        C254   1.400       .  A
C253        C258   1.399       .  A
C254        C255   1.399       .  A
C254        H263   1.083       .  S
C255        C256   1.406       .  A
C255        H264   1.083       .  S
C256        C257   1.406       .  A
C257        C258   1.398       .  A
C257        H265   1.083       .  S
C258        H266   1.083       .  S
