geometry optimzed in LAMMPS
_audit_creation_date              2020-11-30 
_audit_creation_method            'lammps2cif' 
_symmetry_space_group_name_H-M    'P1' 
_symmetry_Int_Tables_number       1 
_symmetry_cell_setting            triclinic 
loop_ 
_symmetry_equiv_pos_as_xyz 
  x,y,z 
_cell_length_a                    28.93830484 
_cell_length_b                    28.941464555537433 
_cell_length_c                    26.29631575783485 
_cell_angle_alpha                 90.00744644143244 
_cell_angle_beta                  89.98733938830533 
_cell_angle_gamma                 120.38835071715478 
loop_ 
_atom_site_label 
_atom_site_type_symbol 
_atom_site_fract_x 
_atom_site_fract_y 
_atom_site_fract_z 
_atom_site_charge 
O1          O  0.77684450  0.54815458  0.32044146    -0.53600
C2          C  0.81491951  0.63189710  0.45054025     0.79000
O3          O  0.90912336  0.71811784  0.31176883    -0.54800
C4          C  0.77950114  0.55460210  0.27282616     0.79000
C5          C  0.76119495  0.69641973  0.32574202     0.81400
Cd6        Cd  0.82218359  0.64411413  0.34179919     1.37500
O7          O  0.79144641  0.59160472  0.42160063    -0.53600
O8          O  0.74054088  0.65052557  0.34572685    -0.52400
C9          C  0.93617078  0.69762064  0.32708802     0.81300
O10         O  0.80946122  0.71782345  0.31167703    -0.54800
O11         O  0.84139495  0.67724210  0.42959134    -0.53300
O12         O  0.80187277  0.60217696  0.25661266    -0.53300
O13         O  0.91080901  0.65214186  0.34798016    -0.52400
O14         O  0.53159835  0.79287491  0.73612911    -0.53600
C15         C  0.61520004  0.83199855  0.60590403     0.79000
O16         O  0.70157691  0.92620787  0.74438405    -0.54800
C17         C  0.53811851  0.79613423  0.78373847     0.79000
C18         C  0.68016364  0.77839836  0.73059434     0.81400
Cd19       Cd  0.62757926  0.83914934  0.71463317     1.37500
O20         O  0.57489263  0.80906069  0.63490088    -0.53600
O21         O  0.63439051  0.75775186  0.71034727    -0.52400
C22         C  0.68088721  0.95313021  0.72922413     0.81300
O23         O  0.70131550  0.82654055  0.74496423    -0.54800
O24         O  0.66063662  0.85791972  0.62679063    -0.53300
O25         O  0.58574357  0.81920742  0.79989481    -0.53300
O26         O  0.63531196  0.92764997  0.70853218    -0.52400
O27         O  0.24096378  0.81557268  0.42204645    -0.53600
C28         C  0.25695634  0.79505590  0.27317427     0.79000
O29         O  0.12577578  0.82836803  0.31611918    -0.54800
C30         C  0.21823561  0.83291790  0.45099601     0.79000
C31         C  0.27411373  0.95362757  0.32582980     0.81400
Cd32       Cd  0.21278228  0.83983570  0.34220160     1.37500
O33         O  0.25951328  0.79119407  0.32079119    -0.53600
O34         O  0.29438788  0.92876347  0.34685255    -0.52400
C35         C  0.09889054  0.77905243  0.32665584     0.81300
O36         O  0.22613987  0.92614967  0.31098835    -0.54800
O37         O  0.23397341  0.81941654  0.25694484    -0.53300
O38         O  0.19342214  0.85327260  0.43005949    -0.53300
O39         O  0.12442682  0.75724818  0.34277744    -0.52400
O40         O  0.57392212  0.81148709  0.42260475    -0.53600
C41         C  0.53684288  0.79064743  0.27334433     0.79000
O42         O  0.70062344  0.92374990  0.31382870    -0.54800
C43         C  0.61450362  0.83076180  0.45131599     0.79000
C44         C  0.67948039  0.77647715  0.32603023     0.81400
Cd45       Cd  0.62620990  0.83637977  0.34235909     1.37500
O46         O  0.53028195  0.78713456  0.32096714    -0.53600
O47         O  0.63259449  0.75465612  0.34402072    -0.52400
C48         C  0.67808583  0.94997731  0.32544018     0.81300
O49         O  0.70137475  0.82538807  0.31410891    -0.54800
O50         O  0.58449782  0.81481495  0.25715109    -0.53300
O51         O  0.65983200  0.85228642  0.43008071    -0.53300
O52         O  0.63125637  0.92393111  0.34343126    -0.52400
O53         O  0.24144574  0.47459872  0.42167599    -0.53600
C54         C  0.25353117  0.51156613  0.27297641     0.79000
O55         O  0.22354463  0.34842482  0.31153731    -0.54800
C56         C  0.21786396  0.43435545  0.45065624     0.79000
C57         C  0.09675119  0.36842988  0.32714383     0.81400
Cd58       Cd  0.21073699  0.42201421  0.34192335     1.37500
O59         O  0.25611205  0.51798822  0.32059314    -0.53600
O60         O  0.12211129  0.41406224  0.34774350    -0.52400
C61         C  0.27171247  0.36967990  0.32585677     0.81300
O62         O  0.12379875  0.34780877  0.31214856    -0.54800
O63         O  0.23120003  0.46399857  0.25674541    -0.53300
O64         O  0.19133948  0.38899031  0.42975366    -0.53300
O65         O  0.29227518  0.41543218  0.34613214    -0.52400
O66         O  0.50273610  0.27935615  0.32100911    -0.53600
C67         C  0.41840939  0.23575108  0.45136127     0.79000
O68         O  0.33146341  0.24065744  0.31440804    -0.54800
C69         C  0.49619263  0.27552064  0.27338886     0.79000
C70         C  0.35481608  0.11618615  0.32579287     0.81400
Cd71       Cd  0.40678441  0.22984239  0.34241495     1.37500
O72         O  0.45899024  0.25437162  0.42267715    -0.53600
O73         O  0.40146602  0.14217461  0.34417833    -0.52400
C74         C  0.35346606  0.28966451  0.32599208     0.81300
O75         O  0.33251296  0.14249309  0.31365434    -0.54800
O76         O  0.37312897  0.21476100  0.43010127    -0.53300
O77         O  0.44854210  0.25104452  0.25720545    -0.53300
O78         O  0.40049318  0.31161815  0.34364182    -0.52400
O79         O  0.77313538  0.27471227  0.32038460    -0.53600
C80         C  0.81451852  0.23304171  0.45065349     0.79000
O81         O  0.80668046  0.13998599  0.31053124    -0.54800
C82         C  0.77596551  0.27108120  0.27276681     0.79000
C83         C  0.93401990  0.28701704  0.32651820     0.81400
Cd84       Cd  0.82007021  0.22627445  0.34183456     1.37500
O85         O  0.79244088  0.25109303  0.42172035    -0.53600
O86         O  0.90851967  0.30873403  0.34297476    -0.52400
C87         C  0.75868966  0.11251692  0.32534639     0.81300
O88         O  0.90707956  0.23781425  0.31554242    -0.54800
O89         O  0.83867910  0.21199908  0.42969108    -0.53300
O90         O  0.79917625  0.24693236  0.25655792    -0.53300
O91         O  0.73841253  0.13738097  0.34638630    -0.52400
O92         O  0.79503310  0.59086114  0.63386949    -0.53600
C93         C  0.77411818  0.55380920  0.78307989     0.79000
O94         O  0.90734219  0.71723036  0.74308605    -0.54800
C95         C  0.81397294  0.63140099  0.60512503     0.79000
C96         C  0.76030928  0.69675088  0.73035267     0.81400
Cd97       Cd  0.81995766  0.64320020  0.71406307     1.37500
O98         O  0.77048351  0.54727241  0.73545719    -0.53600
O99         O  0.73824876  0.64963562  0.71291484    -0.52400
C100        C  0.93358801  0.69488478  0.73084671     0.81300
O101        O  0.80936375  0.71876656  0.74176363    -0.54800
O102        O  0.79846148  0.60145384  0.79927958    -0.53300
O103        O  0.83534721  0.67673517  0.62631971    -0.53300
O104        O  0.90754996  0.64832387  0.71227804    -0.52400
O105        O  0.77461492  0.27668036  0.73549475    -0.53600
C106        C  0.81614663  0.23491832  0.60519100     0.79000
O107        O  0.90930284  0.24304210  0.74526677    -0.54800
C108        C  0.77831888  0.27392664  0.78311298     0.79000
C109        C  0.76218340  0.11582704  0.72961203     0.81400
Cd110      Cd  0.82301011  0.22969692  0.71403581     1.37500
O111        O  0.79823827  0.25720507  0.63404027    -0.53600
O112        O  0.74036213  0.14138563  0.71360056    -0.52400
C113        C  0.93678268  0.29105662  0.73054154     0.81300
O114        O  0.81152967  0.14268277  0.74003808    -0.54800
O115        O  0.83706735  0.21070252  0.62624768    -0.53300
O116        O  0.80249960  0.25074841  0.79931122    -0.53300
O117        O  0.91192275  0.31137104  0.70957677    -0.52400
O118        O  0.26311624  0.51926820  0.73557194    -0.53600
C119        C  0.21886173  0.43506646  0.60523592     0.79000
O120        O  0.22374326  0.34800515  0.74239309    -0.54800
C121        C  0.25897718  0.51273529  0.78318826     0.79000
C122        C  0.09936264  0.37158887  0.73074629     0.81400
Cd123      Cd  0.21303720  0.42334689  0.71417419     1.37500
O124        O  0.23741290  0.47561092  0.63394985    -0.53600
O125        O  0.12548762  0.41833191  0.71259226    -0.52400
C126        C  0.27267625  0.36981342  0.73054552     0.81300
O127        O  0.12554291  0.34909691  0.74269142    -0.54800
O128        O  0.19795272  0.38977510  0.62646315    -0.53300
O129        O  0.23409811  0.46509682  0.79938057    -0.53300
O130        O  0.29464064  0.41674154  0.71266153    -0.52400
O131        O  0.45784711  0.25795221  0.63492765    -0.53600
C132        C  0.49480044  0.27025168  0.78358385     0.79000
O133        O  0.33133629  0.23975806  0.74472595    -0.54800
C134        C  0.41758920  0.23456689  0.60594021     0.79000
C135        C  0.35196296  0.11329223  0.72945003     0.81400
Cd136      Cd  0.40523206  0.22725439  0.71466139     1.37500
O137        O  0.50121741  0.27281991  0.73596621    -0.53600
O138        O  0.39738232  0.13870838  0.70844028    -0.52400
C139        C  0.35265907  0.28801266  0.73067112     0.81300
O140        O  0.33141617  0.14027201  0.74484755    -0.54800
O141        O  0.44722639  0.24783367  0.79983005    -0.53300
O142        O  0.37219763  0.20813827  0.62683225    -0.53300
O143        O  0.39856800  0.30874288  0.71068548    -0.52400
O144        O  0.23451689  0.80892699  0.63440377    -0.53600
C145        C  0.25462728  0.79252285  0.78337329     0.79000
O146        O  0.22130986  0.92374565  0.74016845    -0.54800
C147        C  0.21678880  0.83133460  0.60551250     0.79000
C148        C  0.09614912  0.77536733  0.73088310     0.81400
Cd149      Cd  0.20991833  0.83671905  0.71433755     1.37500
O150        O  0.25825265  0.78968660  0.73575295    -0.53600
O151        O  0.12101543  0.75504566  0.70993319    -0.52400
C152        C  0.27070267  0.95059570  0.72992000     0.81300
O153        O  0.12362332  0.82338507  0.74559674    -0.54800
O154        O  0.23052777  0.81578305  0.79959245    -0.53300
O155        O  0.19608914  0.85579358  0.62651831    -0.53300
O156        O  0.29258727  0.92503035  0.71407037    -0.52400
C157        C  0.68391250  0.36628174  0.10675767     0.90700
C158        C  0.62757802  0.33911404  0.13015221    -0.49600
C159        C  0.62803405  0.33940944  0.18200078     0.13600
C160        C  0.68422478  0.36651233  0.20557906     0.24500
C161        C  0.71348372  0.42275482  0.12986966    -0.50300
C162        C  0.71348399  0.42256937  0.18172614     0.13700
C163        C  0.71090351  0.33717312  0.12993185    -0.49800
C164        C  0.71094952  0.33745987  0.18178416     0.14300
H165        H  0.59090670  0.32146039  0.10789559     0.18800
H166        H  0.68435150  0.36662242  0.24786974     0.04500
H167        H  0.73242639  0.45931333  0.10743346     0.19100
H168        H  0.72839753  0.31830238  0.10753318     0.18900
C169        C  0.68330837  0.36589326  0.94945684     0.90700
C170        C  0.71046565  0.42225723  0.92615557    -0.49600
C171        C  0.71012085  0.42188255  0.87430704     0.13600
C172        C  0.68298217  0.36573276  0.85063498     0.24500
C173        C  0.62680636  0.33636906  0.92640282    -0.50300
C174        C  0.62694038  0.33644745  0.87454566     0.13700
C175        C  0.71238786  0.33893187  0.92613303    -0.49800
C176        C  0.71205180  0.33896396  0.87428196     0.14300
H177        H  0.72815697  0.45889138  0.94847373     0.18800
H178        H  0.68283215  0.36566961  0.80834417     0.04500
H179        H  0.59026682  0.31738614  0.94887710     0.19100
H180        H  0.73127272  0.32139650  0.94843523     0.18900
C181        C  0.34894694  0.69996151  0.10697100     0.90700
C182        C  0.40531710  0.72711320  0.13026062    -0.49600
C183        C  0.40494420  0.72679429  0.18210760     0.13600
C184        C  0.34879355  0.69969007  0.20579253     0.24500
C185        C  0.31940792  0.64347718  0.13006357    -0.50300
C186        C  0.31949399  0.64364096  0.18192209     0.13700
C187        C  0.32199881  0.72906329  0.13026723    -0.49800
C188        C  0.32203329  0.72875469  0.18211730     0.14300
H189        H  0.44195309  0.74477202  0.10793633     0.18800
H190        H  0.34873633  0.69956553  0.24808321     0.04500
H191        H  0.30042618  0.60692597  0.10761195     0.19100
H192        H  0.30446569  0.74794072  0.10794725     0.18900
C193        C  0.34956285  0.70052795  0.94967392     0.90700
C194        C  0.32247037  0.64418772  0.92632454    -0.49600
C195        C  0.32288224  0.64461083  0.87447782     0.13600
C196        C  0.35001226  0.70077857  0.85085329     0.24500
C197        C  0.40609475  0.73010777  0.92666262    -0.50300
C198        C  0.40602427  0.73007181  0.87480448     0.13700
C199        C  0.32047778  0.72747487  0.92635587    -0.49800
C200        C  0.32087958  0.72749017  0.87450533     0.14300
H201        H  0.30477389  0.60753283  0.94861106     0.18800
H202        H  0.35021217  0.70087726  0.80856307     0.04500
H203        H  0.44260853  0.74907730  0.94916619     0.19100
H204        H  0.30153966  0.74496497  0.94866124     0.18900
C205        C  0.34907726  0.70014532  0.05123353    -0.09100
C206        C  0.34929070  0.70034781  0.00541132    -0.10700
C207        C  0.68371041  0.36614087  0.05101876    -0.09100
C208        C  0.68350997  0.36600705  0.00519572    -0.10700
C209        C  0.29650404  0.75095727  0.84432875    -0.09100
C210        C  0.27698182  0.77022128  0.81735741    -0.10700
C211        C  0.57871437  0.31169617  0.84453204    -0.09100
C212        C  0.53971760  0.29215523  0.81754569    -0.10700
C213        C  0.32429882  0.05609391  0.73415870    -0.09100
C214        C  0.30024931  0.00782991  0.73435443    -0.10700
C215        C  0.28127703  0.55761176  0.81721226    -0.09100
C216        C  0.30003376  0.59654857  0.84426169    -0.10700
C217        C  0.30160516  0.34185239  0.73547591    -0.09100
C218        C  0.32528952  0.31753372  0.73552452    -0.10700
C219        C  0.73643192  0.31548892  0.84410022    -0.09100
C220        C  0.75596026  0.29622616  0.81711731    -0.10700
C221        C  0.04221492  0.34452635  0.73576158    -0.09100
C222        C  0.99395143  0.32064885  0.73567978    -0.10700
C223        C  0.73304000  0.46997566  0.84412996    -0.09100
C224        C  0.75182926  0.50893019  0.81710212    -0.10700
C225        C  0.99071736  0.72192128  0.73599559    -0.09100
C226        C  0.03897895  0.74578508  0.73599362    -0.10700
C227        C  0.75370591  0.29347780  0.23878011    -0.09100
C228        C  0.73444785  0.31303713  0.21184853    -0.10700
C229        C  0.81254959  0.23610545  0.50499770    -0.09100
C230        C  0.81309619  0.23674024  0.55083670    -0.10700
C231        C  0.57998672  0.31650168  0.21226145    -0.09100
C232        C  0.54106544  0.29774647  0.23934519    -0.10700
C233        C  0.42271294  0.23763147  0.55159555    -0.09100
C234        C  0.42300543  0.23798251  0.50574995    -0.10700
C235        C  0.29479326  0.59544055  0.21197609    -0.09100
C236        C  0.27532883  0.55646839  0.23899597    -0.10700
C237        C  0.22082627  0.43946113  0.50500351    -0.09100
C238        C  0.22111039  0.43971615  0.55084999    -0.10700
C239        C  0.03954265  0.34063521  0.32243035    -0.09100
C240        C  0.99127213  0.31653426  0.32218613    -0.10700
C241        C  0.30129995  0.34238291  0.32098691    -0.09100
C242        C  0.32560310  0.31868478  0.32104103    -0.10700
C243        C  0.45303745  0.74967689  0.21227502    -0.09100
C244        C  0.49198062  0.76841831  0.23931115    -0.10700
C245        C  0.70518885  0.00709843  0.32025394    -0.09100
C246        C  0.72908778  0.05535438  0.32024338    -0.10700
C247        C  0.29855288  0.75314583  0.21226901    -0.09100
C248        C  0.27926954  0.77268238  0.23921050    -0.10700
C249        C  0.21977683  0.82936247  0.55116782    -0.09100
C250        C  0.22025629  0.82989158  0.50533113    -0.10700
C251        C  0.32764816  0.05905011  0.32072137    -0.09100
C252        C  0.30371269  0.01079312  0.32074855    -0.10700
C253        C  0.45427992  0.75480973  0.84481312    -0.09100
C254        C  0.49325960  0.77429638  0.81778901    -0.10700
C255        C  0.60984890  0.82861784  0.50570625    -0.09100
C256        C  0.61009108  0.82898256  0.55155463    -0.10700
C257        C  0.73262043  0.05859531  0.73403664    -0.09100
C258        C  0.70855608  0.01033274  0.73385790    -0.10700
C259        C  0.73133148  0.72466524  0.73529121    -0.09100
C260        C  0.70758727  0.74892526  0.73538518    -0.10700
C261        C  0.73823566  0.47075764  0.21179314    -0.09100
C262        C  0.75772241  0.50971844  0.23882662    -0.10700
C263        C  0.99338169  0.72539475  0.32241294    -0.09100
C264        C  0.04165120  0.74950048  0.32222640    -0.10700
C265        C  0.81191430  0.62687098  0.50489445    -0.09100
C266        C  0.81164940  0.62669241  0.55074196    -0.10700
C267        C  0.73159822  0.72371081  0.32093409    -0.09100
C268        C  0.70730939  0.74742347  0.32104814    -0.10700
loop_ 
_geom_bond_atom_site_label_1 
_geom_bond_atom_site_label_2 
_geom_bond_distance 
_geom_bond_site_symmetry_2 
_ccdc_geom_bond_type 
O1            C4   1.263       .  A
O1           Cd6   2.462       .  S
C2           O11   1.263       .  A
C2            O7   1.265       .  A
C2          C265   1.435       .  S
O3            C9   1.264       .  A
O3           Cd6   2.467       .  S
C4           O12   1.263       .  A
C4          C262   1.434       .  S
C5           O10   1.263       .  A
C5            O8   1.263       .  A
C5          C267   1.435       .  S
Cd6          O13   2.461       .  S
Cd6          O12   2.473       .  S
Cd6          O11   2.453       .  S
Cd6           O7   2.477       .  S
Cd6          O10   2.472       .  S
Cd6           O8   2.464       .  S
C9           O13   1.263       .  A
C9          C263   1.434       .  S
O14          C17   1.263       .  A
O14         Cd19   2.462       .  S
C15          O24   1.263       .  A
C15          O20   1.265       .  A
C15         C256   1.435       .  S
O16          C22   1.264       .  A
O16         Cd19   2.467       .  S
C17          O25   1.263       .  A
C17         C254   1.434       .  S
C18          O23   1.263       .  A
C18          O21   1.263       .  A
C18         C260   1.435       .  S
Cd19         O26   2.461       .  S
Cd19         O25   2.473       .  S
Cd19         O24   2.453       .  S
Cd19         O20   2.477       .  S
Cd19         O23   2.472       .  S
Cd19         O21   2.464       .  S
C22          O26   1.263       .  A
C22         C258   1.434   1_565  S
O27          C30   1.264       .  A
O27         Cd32   2.479       .  S
C28          O37   1.263       .  A
C28          O33   1.263       .  A
C28         C248   1.434       .  S
O29          C35   1.263       .  A
O29         Cd32   2.465       .  S
C30          O38   1.263       .  A
C30         C250   1.435       .  S
C31          O36   1.263       .  A
C31          O34   1.263       .  A
C31         C252   1.434   1_565  S
Cd32         O39   2.463       .  S
Cd32         O38   2.454       .  S
Cd32         O37   2.473       .  S
Cd32         O33   2.460       .  S
Cd32         O36   2.467       .  S
Cd32         O34   2.463       .  S
C35          O39   1.263       .  A
C35         C264   1.434       .  S
O40          C43   1.264       .  A
O40         Cd45   2.481       .  S
C41          O50   1.263       .  A
C41          O46   1.263       .  A
C41         C244   1.434       .  S
O42          C48   1.263       .  A
O42         Cd45   2.467       .  S
C43          O51   1.262       .  A
C43         C255   1.435       .  S
C44          O49   1.263       .  A
C44          O47   1.264       .  A
C44         C268   1.434       .  S
Cd45         O52   2.463       .  S
Cd45         O51   2.455       .  S
Cd45         O50   2.471       .  S
Cd45         O46   2.460       .  S
Cd45         O49   2.466       .  S
Cd45         O47   2.464       .  S
C48          O52   1.263       .  A
C48         C245   1.434   1_565  S
O53          C56   1.264       .  A
O53         Cd58   2.477       .  S
C54          O63   1.263       .  A
C54          O59   1.263       .  A
C54         C236   1.434       .  S
O55          C61   1.263       .  A
O55         Cd58   2.472       .  S
C56          O64   1.263       .  A
C56         C237   1.435       .  S
C57          O62   1.264       .  A
C57          O60   1.263       .  A
C57         C239   1.434       .  S
Cd58         O65   2.464       .  S
Cd58         O64   2.454       .  S
Cd58         O63   2.473       .  S
Cd58         O59   2.463       .  S
Cd58         O62   2.468       .  S
Cd58         O60   2.461       .  S
C61          O65   1.263       .  A
C61         C241   1.435       .  S
O66          C69   1.263       .  A
O66         Cd71   2.461       .  S
C67          O76   1.262       .  A
C67          O72   1.264       .  A
C67         C234   1.435       .  S
O68          C74   1.263       .  A
O68         Cd71   2.466       .  S
C69          O77   1.263       .  A
C69         C232   1.434       .  S
C70          O75   1.263       .  A
C70          O73   1.263       .  A
C70         C251   1.434       .  S
Cd71         O78   2.464       .  S
Cd71         O77   2.471       .  S
Cd71         O76   2.455       .  S
Cd71         O72   2.481       .  S
Cd71         O75   2.467       .  S
Cd71         O73   2.463       .  S
C74          O78   1.264       .  A
C74         C242   1.434       .  S
O79          C82   1.263       .  A
O79         Cd84   2.461       .  S
C80          O89   1.263       .  A
C80          O85   1.264       .  A
C80         C229   1.435       .  S
O81          C87   1.263       .  A
O81         Cd84   2.467       .  S
C82          O90   1.263       .  A
C82         C227   1.434       .  S
C83          O88   1.263       .  A
C83          O86   1.263       .  A
C83         C240   1.434       .  S
Cd84         O91   2.463       .  S
Cd84         O90   2.474       .  S
Cd84         O89   2.454       .  S
Cd84         O85   2.480       .  S
Cd84         O88   2.465       .  S
Cd84         O86   2.463       .  S
C87          O91   1.263       .  A
C87         C246   1.434       .  S
O92          C95   1.264       .  A
O92         Cd97   2.481       .  S
C93         O102   1.263       .  A
C93          O98   1.263       .  A
C93         C224   1.434       .  S
O94         C100   1.263       .  A
O94         Cd97   2.467       .  S
C95         O103   1.262       .  A
C95         C266   1.435       .  S
C96         O101   1.263       .  A
C96          O99   1.264       .  A
C96         C259   1.435       .  S
Cd97        O104   2.464       .  S
Cd97        O103   2.455       .  S
Cd97        O102   2.471       .  S
Cd97         O98   2.460       .  S
Cd97        O101   2.467       .  S
Cd97         O99   2.464       .  S
C100        O104   1.263       .  A
C100        C225   1.434       .  S
O105        C108   1.263       .  A
O105       Cd110   2.461       .  S
C106        O115   1.262       .  A
C106        O111   1.264       .  A
C106        C230   1.435       .  S
O107        C113   1.263       .  A
O107       Cd110   2.467       .  S
C108        O116   1.263       .  A
C108        C220   1.434       .  S
C109        O114   1.263       .  A
C109        O112   1.263       .  A
C109        C257   1.434       .  S
Cd110       O117   2.463       .  S
Cd110       O116   2.473       .  S
Cd110       O115   2.454       .  S
Cd110       O111   2.480       .  S
Cd110       O114   2.464       .  S
Cd110       O112   2.463       .  S
C113        O117   1.263       .  A
C113        C222   1.434       .  S
O118        C121   1.263       .  A
O118       Cd123   2.460       .  S
C119        O128   1.262       .  A
C119        O124   1.264       .  A
C119        C238   1.435       .  S
O120        C126   1.263       .  A
O120       Cd123   2.467       .  S
C121        O129   1.263       .  A
C121        C215   1.434       .  S
C122        O127   1.263       .  A
C122        O125   1.263       .  A
C122        C221   1.434       .  S
Cd123       O130   2.464       .  S
Cd123       O129   2.471       .  S
Cd123       O128   2.455       .  S
Cd123       O124   2.481       .  S
Cd123       O127   2.467       .  S
Cd123       O125   2.464       .  S
C126        O130   1.264       .  A
C126        C217   1.435       .  S
O131        C134   1.264       .  A
O131       Cd136   2.477       .  S
C132        O141   1.263       .  A
C132        O137   1.262       .  A
C132        C212   1.434       .  S
O133        C139   1.263       .  A
O133       Cd136   2.472       .  S
C134        O142   1.263       .  A
C134        C233   1.435       .  S
C135        O140   1.264       .  A
C135        O138   1.263       .  A
C135        C213   1.434       .  S
Cd136       O143   2.464       .  S
Cd136       O142   2.454       .  S
Cd136       O141   2.473       .  S
Cd136       O137   2.462       .  S
Cd136       O140   2.468       .  S
Cd136       O138   2.461       .  S
C139        O143   1.263       .  A
C139        C218   1.435       .  S
O144        C147   1.264       .  A
O144       Cd149   2.480       .  S
C145        O154   1.263       .  A
C145        O150   1.263       .  A
C145        C210   1.434       .  S
O146        C152   1.263       .  A
O146       Cd149   2.464       .  S
C147        O155   1.262       .  A
C147        C249   1.435       .  S
C148        O153   1.263       .  A
C148        O151   1.263       .  A
C148        C226   1.434       .  S
Cd149       O156   2.464       .  S
Cd149       O155   2.454       .  S
Cd149       O154   2.473       .  S
Cd149       O150   2.460       .  S
Cd149       O153   2.467       .  S
Cd149       O151   2.463       .  S
C152        O156   1.263       .  A
C152        C214   1.434   1_565  S
C157        C158   1.535       .  S
C157        C163   1.535       .  S
C157        C161   1.536       .  S
C157        C207   1.466       .  S
C158        H165   1.087       .  S
C158        C159   1.363       .  D
C159        C160   1.534       .  S
C159        C231   1.440       .  S
C160        C164   1.534       .  S
C160        C162   1.534       .  S
C160        H166   1.112       .  S
C161        H167   1.087       .  S
C161        C162   1.364       .  D
C162        C261   1.440       .  S
C163        H168   1.087       .  S
C163        C164   1.364       .  D
C164        C228   1.440       .  S
C169        C170   1.535       .  S
C169        C175   1.535       .  S
C169        C173   1.536       .  S
C169        C208   1.466   1_556  S
C170        H177   1.087       .  S
C170        C171   1.363       .  D
C171        C172   1.534       .  S
C171        C223   1.440       .  S
C172        C176   1.534       .  S
C172        C174   1.534       .  S
C172        H178   1.112       .  S
C173        H179   1.087       .  S
C173        C174   1.364       .  D
C174        C211   1.440       .  S
C175        H180   1.087       .  S
C175        C176   1.364       .  D
C176        C219   1.440       .  S
C181        C182   1.535       .  S
C181        C187   1.535       .  S
C181        C185   1.536       .  S
C181        C205   1.466       .  S
C182        H189   1.087       .  S
C182        C183   1.363       .  D
C183        C184   1.534       .  S
C183        C243   1.440       .  S
C184        C188   1.534       .  S
C184        C186   1.534       .  S
C184        H190   1.112       .  S
C185        H191   1.087       .  S
C185        C186   1.364       .  D
C186        C235   1.440       .  S
C187        H192   1.087       .  S
C187        C188   1.364       .  D
C188        C247   1.440       .  S
C193        C194   1.535       .  S
C193        C199   1.535       .  S
C193        C197   1.536       .  S
C193        C206   1.466   1_556  S
C194        H201   1.087       .  S
C194        C195   1.363       .  D
C195        C196   1.534       .  S
C195        C216   1.440       .  S
C196        C200   1.534       .  S
C196        C198   1.534       .  S
C196        H202   1.112       .  S
C197        H203   1.087       .  S
C197        C198   1.364       .  D
C198        C253   1.440       .  S
C199        H204   1.087       .  S
C199        C200   1.364       .  D
C200        C209   1.440       .  S
C205        C206   1.205       .  T
C207        C208   1.205       .  T
C209        C210   1.205       .  T
C211        C212   1.205       .  T
C213        C214   1.205       .  T
C215        C216   1.205       .  T
C217        C218   1.205       .  T
C219        C220   1.205       .  T
C221        C222   1.205   1_455  T
C223        C224   1.205       .  T
C225        C226   1.205   1_655  T
C227        C228   1.205       .  T
C229        C230   1.206       .  T
C231        C232   1.205       .  T
C233        C234   1.206       .  T
C235        C236   1.205       .  T
C237        C238   1.206       .  T
C239        C240   1.205   1_455  T
C241        C242   1.205       .  T
C243        C244   1.205       .  T
C245        C246   1.205       .  T
C247        C248   1.205       .  T
C249        C250   1.205       .  T
C251        C252   1.205       .  T
C253        C254   1.205       .  T
C255        C256   1.206       .  T
C257        C258   1.205       .  T
C259        C260   1.205       .  T
C261        C262   1.205       .  T
C263        C264   1.205   1_655  T
C265        C266   1.206       .  T
C267        C268   1.205       .  T
