geometry optimzed in LAMMPS
_audit_creation_date              2020-11-30 
_audit_creation_method            'lammps2cif' 
_symmetry_space_group_name_H-M    'P1' 
_symmetry_Int_Tables_number       1 
_symmetry_cell_setting            triclinic 
loop_ 
_symmetry_equiv_pos_as_xyz 
  x,y,z 
_cell_length_a                    27.79221066 
_cell_length_b                    27.884859075711297 
_cell_length_c                    27.2658824437316 
_cell_angle_alpha                 89.57729889442247 
_cell_angle_beta                  90.43786887731886 
_cell_angle_gamma                 120.63419861079598 
loop_ 
_atom_site_label 
_atom_site_type_symbol 
_atom_site_fract_x 
_atom_site_fract_y 
_atom_site_fract_z 
_atom_site_charge 
In1        In  0.81920066  0.63996508  0.33006873     1.36900
C2          C  0.81064357  0.62757483  0.42717289     0.79900
O3          O  0.90005530  0.63978826  0.33785095    -0.58500
O4          O  0.90292382  0.71072315  0.30574358    -0.49400
C5          C  0.77688207  0.56009678  0.26155267     0.72600
O6          O  0.77365188  0.54984894  0.30689931    -0.44300
C7          C  0.76076389  0.69103166  0.31980930     0.77300
O8          O  0.79021538  0.58637309  0.39861382    -0.56100
O9          O  0.81208696  0.71449134  0.31014104    -0.46200
O10         O  0.83557962  0.67439152  0.40632764    -0.52600
C11         C  0.92968286  0.68792384  0.32005448     0.87500
O12         O  0.80190338  0.61126551  0.25107808    -0.54500
O13         O  0.73854597  0.64080810  0.33300321    -0.57700
In14       In  0.62872380  0.84017166  0.67609469     1.36900
C15         C  0.61663697  0.83465167  0.57905307     0.79900
O16         O  0.63462834  0.92307312  0.66654781    -0.58500
O17         O  0.69940299  0.92000063  0.70583369    -0.49400
C18         C  0.54952278  0.80048053  0.74468524     0.72600
O19         O  0.53882950  0.79334422  0.69937648    -0.44300
C20         C  0.67316228  0.77637090  0.68736817     0.77300
O21         O  0.57606482  0.82133372  0.60745075    -0.56100
O22         O  0.70133980  0.82851675  0.69219844    -0.46200
O23         O  0.66278084  0.85047842  0.60005111    -0.52600
C24         C  0.68057224  0.94937581  0.68901544     0.87500
O25         O  0.60082054  0.82858803  0.75498079    -0.54500
O26         O  0.62214751  0.75656120  0.67753712    -0.57700
In27       In  0.20981188  0.83385188  0.34314399     1.36900
C28         C  0.20564063  0.82532667  0.44048180     0.79900
O29         O  0.28087068  0.92031745  0.35776159    -0.58500
O30         O  0.22889220  0.90893147  0.29630403    -0.49400
C31         C  0.26458280  0.79382180  0.29427199     0.72600
O32         O  0.27169410  0.80525029  0.33923035    -0.44300
C33         C  0.09996550  0.77359849  0.32601501     0.77300
O34         O  0.22032526  0.79816986  0.41409603    -0.56100
O35         O  0.12653330  0.82601313  0.32661843    -0.46200
O36         O  0.19243510  0.85618895  0.41733081    -0.52600
C37         C  0.26960857  0.94238446  0.32261231     0.87500
O38         O  0.23000584  0.80397353  0.27340663    -0.54500
O39         O  0.12945652  0.75172035  0.33272301    -0.57700
In40       In  0.63092158  0.83908619  0.33296976     1.36900
C41         C  0.61822999  0.83462826  0.42984150     0.79900
O42         O  0.63313736  0.75999040  0.34322112    -0.58500
O43         O  0.70113246  0.82758729  0.30642936    -0.49400
C44         C  0.54907241  0.79732427  0.26594972     0.72600
O45         O  0.54023849  0.79675598  0.31127105    -0.44300
C46         C  0.67805940  0.94862086  0.31962228     0.77300
O47         O  0.57779731  0.80710653  0.40098722    -0.56100
O48         O  0.70451911  0.92341331  0.31428501    -0.46200
O49         O  0.66485573  0.86413883  0.40941899    -0.52600
C50         C  0.67968021  0.77850391  0.32257131     0.87500
O51         O  0.59988132  0.81889466  0.25475875    -0.54500
O52         O  0.62723136  0.91793006  0.33039097    -0.57700
In53       In  0.20655463  0.40588518  0.31942169     1.36900
C54         C  0.21566654  0.41609498  0.41627953     0.79900
O55         O  0.12751451  0.40787850  0.32936148    -0.58500
O56         O  0.12168853  0.33720721  0.29442189    -0.49400
C57         C  0.24485836  0.48997893  0.25483154     0.72600
O58         O  0.24693599  0.49673626  0.30057915    -0.44300
C59         C  0.26581112  0.35604952  0.30633697     0.77300
O60         O  0.24419857  0.45646450  0.38777831    -0.56100
O61         O  0.21440706  0.33245627  0.29640209    -0.46200
O62         O  0.18302971  0.37057178  0.39551986    -0.52600
C63         C  0.09652023  0.36082402  0.31035874     0.87500
O64         O  0.22311767  0.43986510  0.24174381    -0.54500
O65         O  0.28725275  0.40531670  0.32140830    -0.57700
In66       In  0.40508857  0.22031259  0.33773065     1.36900
C67         C  0.40791581  0.21422492  0.43515414     0.79900
O68         O  0.38629501  0.28842744  0.35113240    -0.58500
O69         O  0.34924927  0.23728994  0.28878786    -0.49400
C70         C  0.50139146  0.27616548  0.28873808     0.72600
O71         O  0.49491269  0.28877758  0.33137820    -0.44300
C72         C  0.35380131  0.11138824  0.32053777     0.77300
O73         O  0.45079838  0.23045712  0.40916669    -0.56100
O74         O  0.32936874  0.13879070  0.31649174    -0.46200
O75         O  0.36365550  0.20041204  0.41157765    -0.52600
C76         C  0.35415602  0.27667732  0.31479537     0.87500
O77         O  0.45819370  0.23544730  0.27041217    -0.54500
O78         O  0.40477870  0.13962050  0.33207117    -0.57700
In79       In  0.81818489  0.22704561  0.34082369     1.36900
C80         C  0.82794475  0.23733561  0.43774280     0.79900
O81         O  0.74821084  0.14056629  0.35843798    -0.58500
O82         O  0.79797333  0.15097198  0.29616980    -0.49400
C83         C  0.76065982  0.26581298  0.29211538     0.72600
O84         O  0.75153582  0.25005595  0.33609782    -0.44300
C85         C  0.92706614  0.28329725  0.32015301     0.77300
O86         O  0.81507936  0.26659958  0.41161085    -0.56100
O87         O  0.89690181  0.23147080  0.31456249    -0.46200
O88         O  0.83684507  0.20380845  0.41450951    -0.52600
C89         C  0.75841017  0.11789690  0.32354762     0.87500
O90         O  0.79889840  0.26107278  0.27232565    -0.54500
O91         O  0.90161040  0.30703664  0.33490888    -0.57700
In92       In  0.81079259  0.63823879  0.67380474     1.36900
C93         C  0.80600986  0.62784635  0.57648396     0.79900
O94         O  0.72956047  0.63759620  0.67282511    -0.58500
O95         O  0.80352136  0.71169114  0.69474459    -0.49400
C96         C  0.77074103  0.55791473  0.74101586     0.72600
O97         O  0.76962660  0.54857017  0.69569823    -0.44300
C98         C  0.91898984  0.68265158  0.69116267     0.77300
O99         O  0.77836867  0.58695334  0.60471272    -0.56100
O100        O  0.89367277  0.70855658  0.69892690    -0.46200
O101        O  0.83553141  0.67380420  0.59771874    -0.52600
C102        C  0.75175056  0.68746470  0.68663298     0.87500
O103        O  0.79187019  0.60849117  0.75203160    -0.54500
O104        O  0.88920394  0.63397545  0.67483890    -0.57700
In105      In  0.83912665  0.22723548  0.68349978     1.36900
C106        C  0.83606052  0.23679814  0.58677911     0.79900
O107        O  0.91895178  0.30974301  0.68611892    -0.58500
O108        O  0.92218235  0.23668479  0.70241436    -0.49400
C109        C  0.79710729  0.26401176  0.75074494     0.72600
O110        O  0.79526881  0.27168257  0.70529819    -0.44300
C111        C  0.77309847  0.11811482  0.69246888     0.77300
O112        O  0.81503125  0.25633538  0.61544941    -0.56100
O113        O  0.82284085  0.14326611  0.70789676    -0.46200
O114        O  0.85894202  0.21289490  0.60733734    -0.52600
C115        C  0.94851824  0.28881381  0.69680126     0.87500
O116        O  0.82125984  0.23762649  0.76231601    -0.54500
O117        O  0.75671116  0.14860536  0.67351208    -0.57700
In118      In  0.22392019  0.42026812  0.66292803     1.36900
C119        C  0.22258353  0.42253070  0.56539256     0.79900
O120        O  0.30328063  0.41877181  0.67531725    -0.58500
O121        O  0.22566077  0.34233131  0.67888333    -0.49400
C122        C  0.27694906  0.51432116  0.71406998     0.72600
O123        O  0.28591935  0.51154195  0.66928337    -0.44300
C124        C  0.11701725  0.37488784  0.68653639     0.77300
O125        O  0.23053768  0.46338171  0.59093682    -0.56100
O126        O  0.14921955  0.36254312  0.70853842    -0.46200
O127        O  0.21529445  0.38067119  0.58938388    -0.52600
C128        C  0.27811656  0.36675859  0.68150204     0.87500
O129        O  0.24130289  0.46861868  0.73323143    -0.54500
O130        O  0.13952484  0.41140876  0.65358899    -0.57700
In131      In  0.39505943  0.20880249  0.68183218     1.36900
C132        C  0.40398506  0.21037482  0.58465876     0.79900
O133        O  0.39410744  0.12808938  0.68261517    -0.58500
O134        O  0.32242642  0.12863519  0.70887706    -0.49400
C135        C  0.47642549  0.24859069  0.74846720     0.72600
O136        O  0.48463989  0.24619406  0.70335563    -0.44300
C137        C  0.35261654  0.27437233  0.69020525     0.77300
O138        O  0.44585991  0.23663662  0.61238269    -0.56100
O139        O  0.32600859  0.22386652  0.70293821    -0.46200
O140        O  0.35781729  0.18328871  0.60637112    -0.52600
C141        C  0.34544421  0.10076476  0.69981574     0.87500
O142        O  0.42618401  0.23037589  0.75977748    -0.54500
O143        O  0.40110871  0.29168644  0.67419195    -0.57700
In144      In  0.19702536  0.82366187  0.68746745     1.36900
C145        C  0.20174344  0.82198848  0.59003914     0.79900
O146        O  0.11571920  0.74278322  0.68135890    -0.58500
O147        O  0.11562381  0.81192497  0.71374155    -0.49400
C148        C  0.23734938  0.78174685  0.75316982     0.72600
O149        O  0.23707115  0.77383460  0.70767212    -0.44300
C150        C  0.25905947  0.93235080  0.70163570     0.77300
O151        O  0.22608380  0.80413965  0.61732641    -0.56100
O152        O  0.20783217  0.90506325  0.71188104    -0.46200
O153        O  0.17547123  0.84089090  0.61229843    -0.52600
C154        C  0.08770880  0.76210947  0.69971493     0.87500
O155        O  0.21629437  0.81057939  0.76524501    -0.54500
O156        O  0.27904702  0.90421423  0.68492703    -0.57700
C157        C  0.68096855  0.36384828  0.12292163     0.88900
C158        C  0.62102939  0.32969893  0.14219657    -0.51400
C159        C  0.61768549  0.32491640  0.19205618     0.11800
C160        C  0.67534312  0.35389371  0.21787013     0.22700
C161        C  0.70692630  0.42000127  0.14975092    -0.52100
C162        C  0.70412458  0.41483862  0.19991598     0.11900
C163        C  0.71119618  0.33516332  0.14381751    -0.51600
C164        C  0.70845126  0.32952770  0.19361415     0.12400
H165        H  0.58434524  0.31163358  0.11850441     0.17000
H166        H  0.67323499  0.35019213  0.25832570     0.02700
H167        H  0.72579099  0.45960423  0.13045365     0.17300
H168        H  0.73329163  0.32077689  0.12106627     0.17100
C169        C  0.68443851  0.35785394  0.87474520     0.88900
C170        C  0.70917048  0.41527911  0.84988016    -0.51400
C171        C  0.70817934  0.41270616  0.79973784     0.11800
C172        C  0.68282333  0.35356718  0.77984577     0.22700
C173        C  0.62522125  0.32284395  0.85296776    -0.52100
C174        C  0.62474166  0.32083054  0.80279657     0.11900
C175        C  0.71778200  0.33232957  0.85381967    -0.51600
C176        C  0.71675173  0.33032418  0.80361086     0.12400
H177        H  0.72597069  0.45377534  0.87032640     0.17000
H178        H  0.68207167  0.35182466  0.73909834     0.02700
H179        H  0.58778708  0.30193000  0.87526610     0.17300
H180        H  0.74024065  0.31809262  0.87659853     0.17100
C181        C  0.34918217  0.69875333  0.12992461     0.88900
C182        C  0.40616699  0.72867939  0.15618029    -0.51400
C183        C  0.40219204  0.72851790  0.20626793     0.11800
C184        C  0.34154793  0.69886893  0.22472314     0.22700
C185        C  0.31796505  0.64001832  0.15254370    -0.52100
C186        C  0.31405616  0.64000114  0.20260626     0.11900
C187        C  0.31800692  0.72737625  0.14807459    -0.51600
C188        C  0.31416014  0.72799821  0.19788485     0.12400
H189        H  0.44543888  0.74774171  0.13653116     0.17000
H190        H  0.33837779  0.69806509  0.26520145     0.02700
H191        H  0.30135491  0.60249937  0.13066717     0.17300
H192        H  0.30083754  0.74591495  0.12365806     0.17100
C193        C  0.35120005  0.69159546  0.88162071     0.88900
C194        C  0.32415048  0.63131372  0.86327049    -0.51400
C195        C  0.32094212  0.62676732  0.81336705     0.11800
C196        C  0.34444772  0.68324558  0.78683977     0.22700
C197        C  0.40833846  0.72328860  0.85594632    -0.52100
C198        C  0.40456355  0.71892368  0.80582922     0.11900
C199        C  0.31631626  0.71443124  0.85836446    -0.51600
C200        C  0.31293529  0.71009015  0.80830526     0.12400
H201        H  0.30902952  0.59547344  0.88756267     0.17000
H202        H  0.34149878  0.68073675  0.74628010     0.02700
H203        H  0.44745150  0.74688858  0.87582421     0.17300
H204        H  0.29669525  0.73237267  0.87978311     0.17100
C205        C  0.35459703  0.69590358  0.93553758    -0.16100
C206        C  0.35575348  0.69802496  0.97983815     0.07900
C207        C  0.35527817  0.69905423  0.03177901     0.09800
C208        C  0.35331706  0.69903357  0.07605953    -0.17000
C209        C  0.68538975  0.36098348  0.92869707    -0.16100
C210        C  0.68568090  0.36440766  0.97288575     0.07900
C211        C  0.68516609  0.36764730  0.02469869     0.09800
C212        C  0.68384722  0.36808999  0.06899641    -0.17000
C213        C  0.28404653  0.73002595  0.77521076    -0.14100
C214        C  0.26120960  0.76001684  0.78947129    -0.29200
H215        H  0.28359103  0.72102714  0.73644987     0.15000
H216        H  0.26135237  0.77041230  0.82771845     0.15500
C217        C  0.52206508  0.27170254  0.78496612    -0.14100
C218        C  0.57499577  0.29179588  0.77061791    -0.29200
H219        H  0.51221066  0.27404484  0.82295834     0.15000
H220        H  0.58321250  0.28970312  0.73202671     0.15500
C221        C  0.31723215  0.04166620  0.70623192    -0.10900
C222        C  0.29164680  0.99156715  0.70663416    -0.12500
C223        C  0.30551079  0.56753461  0.74073096    -0.14100
C224        C  0.29553049  0.57206472  0.78814015    -0.29200
H225        H  0.33509667  0.60393236  0.71996866     0.15000
H226        H  0.26785898  0.53475432  0.80906620     0.15500
C227        C  0.32866185  0.30917319  0.69188325    -0.10900
C228        C  0.30682986  0.33688672  0.68918847    -0.12500
C229        C  0.77234815  0.28397601  0.78715911    -0.14100
C230        C  0.74528572  0.30975530  0.77183808    -0.29200
H231        H  0.77542614  0.27648014  0.82586404     0.15000
H232        H  0.74259247  0.31562627  0.73265899     0.15500
C233        C  0.00820883  0.32161253  0.69957960    -0.10900
C234        C  0.05837089  0.34742486  0.69641790    -0.12500
C235        C  0.74955360  0.51347229  0.77835690    -0.14100
C236        C  0.72944477  0.46035406  0.76522868    -0.29200
H237        H  0.75116710  0.52488628  0.81649814     0.15000
H238        H  0.72829395  0.45063905  0.72656438     0.15500
C239        C  0.97787995  0.70752289  0.69888001    -0.10900
C240        C  0.02800505  0.73085461  0.70176503    -0.12500
C241        C  0.72924602  0.28865552  0.26699141    -0.14100
C242        C  0.73773399  0.30443175  0.21968011    -0.29200
H243        H  0.69855498  0.29236106  0.28842019     0.15000
H244        H  0.76736420  0.29837812  0.19870953     0.15500
C245        C  0.83356163  0.24058706  0.53441333    -0.10900
C246        C  0.83131210  0.24089732  0.49025099    -0.12500
C247        C  0.56287465  0.29475240  0.21737499    -0.14100
C248        C  0.55577468  0.30653236  0.26347940    -0.29200
H249        H  0.52699795  0.26351459  0.19677763     0.15000
H250        H  0.59059040  0.33972581  0.28352383     0.15500
C251        C  0.40817310  0.21153753  0.53209059    -0.10900
C252        C  0.40926012  0.21245856  0.48783059    -0.12500
C253        C  0.26653823  0.53688597  0.21947800    -0.14100
C254        C  0.28851728  0.58979847  0.23493018    -0.29200
H255        H  0.26497315  0.52748700  0.18077275     0.15000
H256        H  0.28925828  0.59741524  0.27403743     0.15500
C257        C  0.22159325  0.42324302  0.51280211    -0.10900
C258        C  0.21971173  0.42131867  0.46864812    -0.12500
C259        C  0.03667285  0.33515419  0.30907917    -0.10900
C260        C  0.98644601  0.31253584  0.31216494    -0.12500
C261        C  0.29730265  0.32824812  0.30299977    -0.10900
C262        C  0.32376104  0.30485730  0.30538671    -0.12500
C263        C  0.50393626  0.77484423  0.22875446    -0.14100
C264        C  0.44999133  0.75290727  0.24144124    -0.29200
H265        H  0.51569839  0.77635015  0.19075263     0.15000
H266        H  0.43972978  0.75165378  0.27995309     0.15500
C267        C  0.72839782  0.05848013  0.31698715    -0.10900
C268        C  0.70455116  0.00823384  0.31591497    -0.12500
C269        C  0.28550794  0.75416285  0.22218175    -0.14100
C270        C  0.29424971  0.76962471  0.26944974    -0.29200
H271        H  0.25720095  0.76182284  0.20020723     0.15000
H272        H  0.32391944  0.76437486  0.29133806     0.15500
C273        C  0.20455988  0.82198630  0.49312812    -0.10900
C274        C  0.20368393  0.82112287  0.53739085    -0.12500
C275        C  0.29980700  0.00166002  0.31500933    -0.10900
C276        C  0.32496585  0.05193922  0.31472893    -0.12500
C277        C  0.50582198  0.77739787  0.78280682    -0.14100
C278        C  0.45166041  0.74516349  0.77056108    -0.29200
H279        H  0.51867725  0.78642378  0.82085497     0.15000
H280        H  0.44057651  0.73691399  0.73198975     0.15500
C281        C  0.61145420  0.83241682  0.52650830    -0.10900
C282        C  0.61217214  0.83246399  0.48225115    -0.12500
C283        C  0.73812643  0.05879078  0.69477347    -0.10900
C284        C  0.71042819  0.00873849  0.69365168    -0.12500
C285        C  0.69791791  0.74229293  0.69112580    -0.10900
C286        C  0.72098765  0.71564539  0.69093666    -0.12500
C287        C  0.75377487  0.51612796  0.22358473    -0.14100
C288        C  0.72661167  0.46165015  0.23568713    -0.29200
H289        H  0.76000876  0.52920404  0.18549678     0.15000
H290        H  0.72106784  0.45019113  0.27426380     0.15500
C291        C  0.04021066  0.74132768  0.31992830    -0.10900
C292        C  0.98973057  0.71581047  0.31814758    -0.12500
C293        C  0.80597010  0.62236385  0.47969313    -0.10900
C294        C  0.80454990  0.62281808  0.52394026    -0.12500
C295        C  0.73047242  0.72018936  0.31772511    -0.10900
C296        C  0.70674087  0.74635039  0.31869089    -0.12500
loop_ 
_geom_bond_atom_site_label_1 
_geom_bond_atom_site_label_2 
_geom_bond_distance 
_geom_bond_site_symmetry_2 
_ccdc_geom_bond_type 
In1           O3   2.258       .  S
In1           O4   2.252       .  S
In1          O12   2.264       .  S
In1           O6   2.255       .  S
In1           O8   2.265       .  S
In1           O9   2.248       .  S
In1          O10   2.241       .  S
In1          O13   2.256       .  S
C2            O8   1.261       .  A
C2           O10   1.257       .  A
C2          C293   1.438       .  S
O3           C11   1.259       .  A
O4           C11   1.258       .  A
C5           O12   1.260       .  A
C5            O6   1.260       .  A
C5          C287   1.481       .  S
C7            O9   1.259       .  A
C7           O13   1.260       .  A
C7          C295   1.438       .  S
C11         C292   1.439       .  S
In14         O16   2.246       .  S
In14         O17   2.240       .  S
In14         O25   2.257       .  S
In14         O19   2.244       .  S
In14         O21   2.261       .  S
In14         O22   2.241       .  S
In14         O23   2.241       .  S
In14         O26   2.244       .  S
C15          O21   1.261       .  A
C15          O23   1.258       .  A
C15         C281   1.437       .  S
O16          C24   1.259       .  A
O17          C24   1.258       .  A
C18          O25   1.259       .  A
C18          O19   1.262       .  A
C18         C277   1.477       .  S
C20          O22   1.259       .  A
C20          O26   1.259       .  A
C20         C285   1.432       .  S
C24         C284   1.430   1_565  S
In27         O29   2.241       .  S
In27         O30   2.266       .  S
In27         O38   2.267       .  S
In27         O32   2.238       .  S
In27         O34   2.253       .  S
In27         O35   2.253       .  S
In27         O36   2.248       .  S
In27         O39   2.258       .  S
C28          O34   1.259       .  A
C28          O36   1.259       .  A
C28         C273   1.437       .  S
O29          C37   1.256       .  A
O30          C37   1.260       .  A
C31          O38   1.262       .  A
C31          O32   1.257       .  A
C31         C270   1.475       .  S
C33          O35   1.258       .  A
C33          O39   1.258       .  A
C33         C291   1.439       .  S
C37         C275   1.436   1_565  S
In40         O42   2.253       .  S
In40         O43   2.258       .  S
In40         O51   2.259       .  S
In40         O45   2.247       .  S
In40         O47   2.256       .  S
In40         O48   2.252       .  S
In40         O49   2.246       .  S
In40         O52   2.253       .  S
C41          O47   1.260       .  A
C41          O49   1.259       .  A
C41         C282   1.437       .  S
O42          C50   1.258       .  A
O43          C50   1.259       .  A
C44          O51   1.260       .  A
C44          O45   1.260       .  A
C44         C263   1.478       .  S
C46          O48   1.259       .  A
C46          O52   1.259       .  A
C46         C268   1.438   1_565  S
C50         C296   1.439       .  S
In53         O55   2.244       .  S
In53         O56   2.255       .  S
In53         O64   2.266       .  S
In53         O58   2.244       .  S
In53         O60   2.250       .  S
In53         O61   2.261       .  S
In53         O62   2.244       .  S
In53         O65   2.251       .  S
C54          O60   1.260       .  A
C54          O62   1.259       .  A
C54         C258   1.434       .  S
O55          C63   1.258       .  A
O56          C63   1.261       .  A
C57          O64   1.260       .  A
C57          O58   1.259       .  A
C57         C253   1.480       .  S
C59          O61   1.259       .  A
C59          O65   1.258       .  A
C59         C261   1.438       .  S
C63         C259   1.437       .  S
In66         O68   2.245       .  S
In66         O69   2.263       .  S
In66         O77   2.263       .  S
In66         O71   2.248       .  S
In66         O73   2.256       .  S
In66         O74   2.249       .  S
In66         O75   2.249       .  S
In66         O78   2.252       .  S
C67          O73   1.259       .  A
C67          O75   1.258       .  A
C67         C252   1.438       .  S
O68          C76   1.257       .  A
O69          C76   1.259       .  A
C70          O77   1.261       .  A
C70          O71   1.258       .  A
C70         C248   1.476       .  S
C72          O74   1.258       .  A
C72          O78   1.259       .  A
C72         C276   1.436       .  S
C76         C262   1.438       .  S
In79         O81   2.246       .  S
In79         O82   2.261       .  S
In79         O90   2.270       .  S
In79         O84   2.251       .  S
In79         O86   2.254       .  S
In79         O87   2.250       .  S
In79         O88   2.243       .  S
In79         O91   2.260       .  S
C80          O86   1.259       .  A
C80          O88   1.258       .  A
C80         C246   1.435       .  S
O81          C89   1.257       .  A
O82          C89   1.259       .  A
C83          O90   1.261       .  A
C83          O84   1.257       .  A
C83         C241   1.479       .  S
C85          O87   1.257       .  A
C85          O91   1.259       .  A
C85         C260   1.438       .  S
C89         C267   1.438       .  S
In92         O94   2.248       .  S
In92         O95   2.237       .  S
In92        O103   2.250       .  S
In92         O97   2.234       .  S
In92         O99   2.260       .  S
In92        O100   2.239       .  S
In92        O101   2.249       .  S
In92        O104   2.242       .  S
C93          O99   1.259       .  A
C93         O101   1.258       .  A
C93         C294   1.439       .  S
O94         C102   1.259       .  A
O95         C102   1.258       .  A
C96         O103   1.258       .  A
C96          O97   1.262       .  A
C96         C235   1.472       .  S
C98         O100   1.259       .  A
C98         O104   1.259       .  A
C98         C239   1.430       .  S
C102        C286   1.432       .  S
In105       O107   2.240       .  S
In105       O108   2.242       .  S
In105       O116   2.263       .  S
In105       O110   2.222       .  S
In105       O112   2.250       .  S
In105       O113   2.243       .  S
In105       O114   2.243       .  S
In105       O117   2.238       .  S
C106        O112   1.260       .  A
C106        O114   1.259       .  A
C106        C245   1.435       .  S
O107        C115   1.258       .  A
O108        C115   1.259       .  A
C109        O116   1.260       .  A
C109        O110   1.261       .  A
C109        C229   1.476       .  S
C111        O113   1.260       .  A
C111        O117   1.258       .  A
C111        C283   1.430       .  S
C115        C233   1.431   1_655  S
In118       O120   2.250       .  S
In118       O121   2.238       .  S
In118       O129   2.255       .  S
In118       O123   2.238       .  S
In118       O125   2.253       .  S
In118       O126   2.248       .  S
In118       O127   2.248       .  S
In118       O130   2.242       .  S
C119        O125   1.259       .  A
C119        O127   1.257       .  A
C119        C257   1.434       .  S
O120        C128   1.259       .  A
O121        C128   1.258       .  A
C122        O129   1.261       .  A
C122        O123   1.259       .  A
C122        C223   1.472       .  S
C124        O126   1.258       .  A
C124        O130   1.257       .  A
C124        C234   1.431       .  S
C128        C228   1.431       .  S
In131       O133   2.237       .  S
In131       O134   2.240       .  S
In131       O142   2.255       .  S
In131       O136   2.230       .  S
In131       O138   2.255       .  S
In131       O139   2.243       .  S
In131       O140   2.247       .  S
In131       O143   2.238       .  S
C132        O138   1.260       .  A
C132        O140   1.259       .  A
C132        C251   1.438       .  S
O133        C141   1.259       .  A
O134        C141   1.259       .  A
C135        O142   1.259       .  A
C135        O136   1.261       .  A
C135        C217   1.474       .  S
C137        O139   1.259       .  A
C137        O143   1.258       .  A
C137        C227   1.431       .  S
C141        C221   1.429       .  S
In144       O146   2.242       .  S
In144       O147   2.237       .  S
In144       O155   2.256       .  S
In144       O149   2.242       .  S
In144       O151   2.257       .  S
In144       O152   2.238       .  S
In144       O153   2.247       .  S
In144       O156   2.242       .  S
C145        O151   1.260       .  A
C145        O153   1.258       .  A
C145        C274   1.438       .  S
O146        C154   1.259       .  A
O147        C154   1.258       .  A
C148        O155   1.258       .  A
C148        O149   1.261       .  A
C148        C214   1.476       .  S
C150        O152   1.258       .  A
C150        O156   1.259       .  A
C150        C222   1.429       .  S
C154        C240   1.429       .  S
C157        C158   1.532       .  S
C157        C163   1.530       .  S
C157        C161   1.538       .  S
C157        C212   1.474       .  S
C158        H165   1.087       .  S
C158        C159   1.364       .  D
C159        C160   1.545       .  S
C159        C247   1.485       .  S
C160        C164   1.549       .  S
C160        C162   1.541       .  S
C160        H166   1.106       .  S
C161        H167   1.085       .  S
C161        C162   1.373       .  D
C162        C288   1.491       .  S
C163        H168   1.088       .  S
C163        C164   1.364       .  D
C164        C242   1.490       .  S
C169        C170   1.538       .  S
C169        C175   1.542       .  S
C169        C173   1.540       .  S
C169        C209   1.474       .  S
C170        H177   1.084       .  S
C170        C171   1.369       .  D
C171        C172   1.528       .  S
C171        C236   1.480       .  S
C172        C176   1.529       .  S
C172        C174   1.528       .  S
C172        H178   1.112       .  S
C173        H179   1.085       .  S
C173        C174   1.369       .  D
C174        C218   1.479       .  S
C175        H180   1.084       .  S
C175        C176   1.370       .  D
C176        C230   1.480       .  S
C181        C182   1.537       .  S
C181        C187   1.533       .  S
C181        C185   1.536       .  S
C181        C208   1.474       .  S
C182        H189   1.084       .  S
C182        C183   1.371       .  D
C183        C184   1.538       .  S
C183        C264   1.489       .  S
C184        C188   1.545       .  S
C184        C186   1.540       .  S
C184        H190   1.107       .  S
C185        H191   1.085       .  S
C185        C186   1.370       .  D
C186        C254   1.490       .  S
C187        H192   1.086       .  S
C187        C188   1.364       .  D
C188        C269   1.487       .  S
C193        C194   1.536       .  S
C193        C199   1.537       .  S
C193        C197   1.540       .  S
C193        C205   1.474       .  S
C194        H201   1.087       .  S
C194        C195   1.366       .  D
C195        C196   1.540       .  S
C195        C224   1.486       .  S
C196        C200   1.534       .  S
C196        C198   1.533       .  S
C196        H202   1.108       .  S
C197        H203   1.084       .  S
C197        C198   1.371       .  D
C198        C278   1.485       .  S
C199        H204   1.084       .  S
C199        C200   1.369       .  D
C200        C213   1.485       .  S
C205        C206   1.209       .  T
C206        C207   1.417   1_556  S
C207        C208   1.209       .  T
C209        C210   1.209       .  T
C210        C211   1.417   1_556  S
C211        C212   1.209       .  T
C213        H215   1.087       .  S
C213        C214   1.343       .  D
C214        H216   1.084       .  S
C217        H219   1.084       .  S
C217        C218   1.340       .  D
C218        H220   1.087       .  S
C221        C222   1.202   1_545  T
C223        H225   1.084       .  S
C223        C224   1.344       .  D
C224        H226   1.087       .  S
C227        C228   1.203       .  T
C229        H231   1.085       .  S
C229        C230   1.341       .  D
C230        H232   1.087       .  S
C233        C234   1.203       .  T
C235        H237   1.084       .  S
C235        C236   1.340       .  D
C236        H238   1.087       .  S
C239        C240   1.202   1_655  T
C241        H243   1.085       .  S
C241        C242   1.343       .  D
C242        H244   1.088       .  S
C245        C246   1.205       .  T
C247        H249   1.087       .  S
C247        C248   1.343       .  D
C248        H250   1.086       .  S
C251        C252   1.207       .  T
C253        H255   1.084       .  S
C253        C254   1.347       .  D
C254        H256   1.087       .  S
C257        C258   1.205       .  T
C259        C260   1.207   1_455  T
C261        C262   1.207       .  T
C263        H265   1.083       .  S
C263        C264   1.346       .  D
C264        H266   1.086       .  S
C267        C268   1.207       .  T
C269        H271   1.089       .  S
C269        C270   1.343       .  D
C270        H272   1.082       .  S
C273        C274   1.207       .  T
C275        C276   1.206       .  T
C277        H279   1.083       .  S
C277        C278   1.343       .  D
C278        H280   1.086       .  S
C281        C282   1.207       .  T
C283        C284   1.203       .  T
C285        C286   1.204       .  T
C287        H289   1.084       .  S
C287        C288   1.347       .  D
C288        H290   1.086       .  S
C291        C292   1.208   1_455  T
C293        C294   1.208       .  T
C295        C296   1.208       .  T
