geometry optimzed in LAMMPS
_audit_creation_date              2020-11-30 
_audit_creation_method            'lammps2cif' 
_symmetry_space_group_name_H-M    'P1' 
_symmetry_Int_Tables_number       1 
_symmetry_cell_setting            triclinic 
loop_ 
_symmetry_equiv_pos_as_xyz 
  x,y,z 
_cell_length_a                    55.940183321301774 
_cell_length_b                    26.15192945522009 
_cell_length_c                    22.29159930675861 
_cell_angle_alpha                 89.7784115246583 
_cell_angle_beta                  90.19334752738992 
_cell_angle_gamma                 89.98636931166625 
loop_ 
_atom_site_label 
_atom_site_type_symbol 
_atom_site_fract_x 
_atom_site_fract_y 
_atom_site_fract_z 
_atom_site_charge 
C1          C  0.04566094  0.94415107  0.62230042     0.04280
C2          C  0.03788195  0.94926471  0.68152436    -0.11870
C3          C  0.02305524  0.98991292  0.69778225     0.01780
C4          C  0.01579161  0.02585514  0.65474158    -0.10400
C5          C  0.02343782  0.02150531  0.59515490     0.04270
C6          C  0.03852748  0.98056599  0.57888398    -0.09820
H7          H  0.04364294  0.92188285  0.71529862     0.09870
H8          H  0.00425650  0.05725638  0.66765616     0.07390
H9          H  0.04485328  0.97740733  0.53314829     0.07240
N10         N  0.22679985  0.90343358  0.59458231    -0.26140
N11         N  0.20696013  0.93006269  0.59157024    -0.34000
C12         C  0.21198658  0.97996710  0.59124522     0.02200
C13         C  0.23654111  0.98503439  0.59430445     0.08220
C14         C  0.24545660  0.93553795  0.59620754    -0.04870
H15         H  0.19864326  0.00985255  0.58960579     0.08890
H16         H  0.26389178  0.92360059  0.60042477     0.10090
Cu17       Cu  0.17506398  0.89448157  0.59221389     0.44170
Cu18       Cu  0.22469602  0.82568104  0.60000279     0.41990
Cu19       Cu  0.16599203  0.75694614  0.61124432     0.43880
N20         N  0.14272051  0.86107685  0.59697430    -0.33530
N21         N  0.13779010  0.81205157  0.60498316    -0.27780
C22         C  0.11360207  0.80779634  0.60788171    -0.03880
C23         C  0.10373046  0.85657743  0.60071580     0.08330
C24         C  0.12272184  0.88871442  0.59430160     0.02130
H25         H  0.10402272  0.77242193  0.61533069     0.09780
H26         H  0.12218929  0.92989741  0.58928733     0.08860
N27         N  0.20051627  0.72159771  0.61234771    -0.34980
N28         N  0.22050670  0.74841613  0.60790731    -0.27160
C29         C  0.23947393  0.71744073  0.60937034    -0.02400
C30         C  0.23181569  0.66763490  0.61494812     0.06210
C31         C  0.20681234  0.67158327  0.61679879     0.04310
H32         H  0.25763071  0.73122371  0.60662044     0.09410
H33         H  0.19417346  0.64047970  0.62072671     0.08250
C34         C  0.47880321  0.20837429  0.61938360     0.04280
C35         C  0.48647989  0.20324615  0.67891229    -0.11870
C36         C  0.50130793  0.16264687  0.69596148     0.01780
C37         C  0.50870172  0.12680997  0.65339412    -0.10400
C38         C  0.50116640  0.13121552  0.59354146     0.04270
C39         C  0.48606567  0.17207541  0.57649177    -0.09820
H40         H  0.48059636  0.23052647  0.71232695     0.09870
H41         H  0.52022871  0.09542520  0.66688287     0.07390
H42         H  0.47979405  0.17519858  0.53057504     0.07240
N43         N  0.29931319  0.25323182  0.61292547    -0.26140
N44         N  0.31828891  0.22669347  0.62858053    -0.34000
C45         C  0.31304484  0.17681018  0.62857830     0.02200
C46         C  0.28929171  0.17199790  0.61271630     0.08220
C47         C  0.28101228  0.22125044  0.60330105    -0.04870
H48         H  0.32560575  0.14662428  0.63920205     0.08890
H49         H  0.26330814  0.23295338  0.58923849     0.10090
Cu50       Cu  0.34991393  0.26194706  0.64322891     0.44170
Cu51       Cu  0.30149042  0.33075893  0.60495298     0.41990
Cu52       Cu  0.35953991  0.39853893  0.61479924     0.43880
N53         N  0.38235331  0.29396625  0.62990645    -0.33530
N54         N  0.38723086  0.34233784  0.61726242    -0.27780
C55         C  0.41101519  0.34528765  0.60558039    -0.03880
C56         C  0.42071300  0.29626595  0.61097968     0.08330
C57         C  0.40205771  0.26540003  0.62649242     0.02130
H58         H  0.42038749  0.37994769  0.59334253     0.09780
H59         H  0.40254971  0.22442202  0.63350508     0.08860
N60         N  0.32532055  0.43476938  0.61435793    -0.34980
N61         N  0.30526928  0.40817390  0.61015956    -0.27160
C62         C  0.28636268  0.43935076  0.61181795    -0.02400
C63         C  0.29421423  0.48897721  0.61742050     0.06210
C64         C  0.31919926  0.48481911  0.61864472     0.04310
H65         H  0.26811760  0.42606975  0.60862792     0.09410
H66         H  0.33192023  0.51574723  0.62278771     0.08250
C67         C  0.54534373  0.20942880  0.94599458     0.04280
C68         C  0.53757278  0.20384750  0.88668789    -0.11870
C69         C  0.52278997  0.16303014  0.87056907     0.01780
C70         C  0.51555813  0.12737209  0.91384917    -0.10400
C71         C  0.52319703  0.13218848  0.97353707     0.04270
C72         C  0.53825011  0.17329895  0.98964402    -0.09820
H73         H  0.54330721  0.23100733  0.85273901     0.09870
H74         H  0.50404681  0.09585008  0.90105449     0.07390
H75         H  0.54457333  0.17681613  0.03544744     0.07240
N76         N  0.72666315  0.25056608  0.96580910    -0.26140
N77         N  0.70683344  0.22384505  0.96533728    -0.34000
C78         C  0.71189250  0.17396814  0.96631481     0.02200
C79         C  0.73648759  0.16889527  0.96726108     0.08220
C80         C  0.74535566  0.21850394  0.96696197    -0.04870
H81         H  0.69851064  0.14417304  0.96615857     0.08890
H82         H  0.76382058  0.23064666  0.96652664     0.10090
Cu83       Cu  0.67490858  0.25917807  0.96213559     0.44170
Cu84       Cu  0.72454277  0.32849352  0.96278573     0.41990
Cu85       Cu  0.66559681  0.39707035  0.95348436     0.43880
N86         N  0.64249374  0.29245391  0.96193440    -0.33530
N87         N  0.63744291  0.34179580  0.95843763    -0.27780
C88         C  0.61322615  0.34615351  0.95909918    -0.03880
C89         C  0.60348491  0.29705883  0.96378014     0.08330
C90         C  0.62256350  0.26468397  0.96515955     0.02130
H91         H  0.60352645  0.38186005  0.95601354     0.09780
H92         H  0.62211350  0.22333684  0.96760546     0.08860
N93         N  0.70009447  0.43254097  0.95182861    -0.34980
N94         N  0.72017141  0.40586026  0.95554907    -0.27160
C95         C  0.73906341  0.43703825  0.95371098    -0.02400
C96         C  0.73125660  0.48678470  0.94842235     0.06210
C97         C  0.70625343  0.48262951  0.94751712     0.04310
H98         H  0.75727425  0.42354384  0.95677827     0.09410
H99         H  0.69352439  0.51363591  0.94407389     0.08250
C100        C  0.97878293  0.94491147  0.94826161     0.04280
C101        C  0.98652195  0.94976142  0.88888018    -0.11870
C102        C  0.00151970  0.99004249  0.87202380     0.01780
C103        C  0.00902884  0.02583018  0.91463071    -0.10400
C104        C  0.00144618  0.02170449  0.97433385     0.04270
C105        C  0.98617001  0.98116867  0.99119736    -0.09820
H106        H  0.98055426  0.92252266  0.85542129     0.09870
H107        H  0.02068326  0.05697060  0.90128249     0.07390
H108        H  0.97986576  0.97826299  0.03699847     0.07240
N109        N  0.79980655  0.90042311  0.96258581    -0.26140
N110        N  0.81829401  0.92646366  0.94291055    -0.34000
C111        C  0.81293135  0.97627947  0.94109320     0.02200
C112        C  0.78959502  0.98156750  0.95990310     0.08220
C113        C  0.78168620  0.93266209  0.97299706    -0.04870
H114        H  0.82506211  0.00607261  0.92669958     0.08890
H115        H  0.76429727  0.92135650  0.98945129     0.10090
Cu116      Cu  0.84950962  0.89095133  0.92430680     0.44170
Cu117      Cu  0.80205063  0.82297704  0.97254490     0.41990
Cu118      Cu  0.85942380  0.75478869  0.95328783     0.43880
N119        N  0.88212397  0.85919507  0.93661104    -0.33530
N120        N  0.88709495  0.81095277  0.94979474    -0.27780
C121        C  0.91090715  0.80820564  0.96159723    -0.03880
C122        C  0.92053927  0.85722434  0.95568215     0.08330
C123        C  0.90180637  0.88788379  0.93976204     0.02130
H124        H  0.92032962  0.77372137  0.97446415     0.09780
H125        H  0.90221044  0.92884924  0.93262477     0.08860
N126        N  0.82514354  0.71893530  0.95584373    -0.34980
N127        N  0.80533638  0.74559688  0.96411752    -0.27160
C128        C  0.78627824  0.71482682  0.96271569    -0.02400
C129        C  0.79375845  0.66535643  0.95300253     0.06210
C130        C  0.81871349  0.66927488  0.94899461     0.04310
H131        H  0.76819125  0.72845189  0.96811860     0.09410
H132        H  0.83121291  0.63848611  0.94117603     0.08250
C133        C  0.04635977  0.20692765  0.12305559     0.04280
C134        C  0.03929635  0.17095333  0.07939998    -0.11870
C135        C  0.02384286  0.13038737  0.09508703     0.01780
C136        C  0.01573928  0.12599483  0.15431752    -0.10400
C137        C  0.02290605  0.16154219  0.19756509     0.04270
C138        C  0.03810056  0.20182142  0.18189590    -0.09820
H139        H  0.04596327  0.17414234  0.03394771     0.09870
H140        H  0.00393577  0.09485256  0.16680366     0.07390
H141        H  0.04377988  0.22889192  0.21584880     0.07240
N142        N  0.22630585  0.25221981  0.12381862    -0.26140
N143        N  0.20799482  0.22685437  0.10203933    -0.34000
C144        C  0.21377594  0.17754313  0.09596216     0.02200
C145        C  0.23722048  0.17161348  0.11456326     0.08220
C146        C  0.24466945  0.21995907  0.13193198    -0.04870
H147        H  0.20152736  0.14835241  0.08068136     0.08890
H148        H  0.26197394  0.23107313  0.14922129     0.10090
Cu149      Cu  0.17635221  0.26217868  0.08694119     0.44170
Cu150      Cu  0.22332842  0.32893470  0.13959574     0.41990
Cu151      Cu  0.16548306  0.39700642  0.11967825     0.43880
N152        N  0.14341819  0.29370762  0.09227417    -0.33530
N153        N  0.13800821  0.34137179  0.10663957    -0.27780
C154        C  0.11385416  0.34396708  0.11200505    -0.03880
C155        C  0.10440554  0.29565275  0.09977724     0.08330
C156        C  0.12366323  0.26534558  0.08792931     0.02130
H157        H  0.10404874  0.37770067  0.12533510     0.09780
H158        H  0.12352355  0.22462310  0.07936959     0.08860
N159        N  0.19954002  0.43325317  0.12845445    -0.34980
N160        N  0.21943201  0.40669198  0.13675047    -0.27160
C161        C  0.23830713  0.43800131  0.13832594    -0.02400
C162        C  0.23061459  0.48762234  0.13049207     0.06210
C163        C  0.20573679  0.48333484  0.12470012     0.04310
H164        H  0.25646573  0.42472680  0.14402704     0.09410
H165        H  0.19319635  0.51413337  0.11680436     0.08250
C166        C  0.47713661  0.94783438  0.12128900     0.04280
C167        C  0.48468572  0.98399736  0.07823411    -0.11870
C168        C  0.50054740  0.02355595  0.09479323     0.01780
C169        C  0.50857044  0.02676473  0.15434752    -0.10400
C170        C  0.50091971  0.99102706  0.19709719     0.04270
C171        C  0.48533579  0.95173487  0.18048557    -0.09820
H172        H  0.47804710  0.98180639  0.03259127     0.09870
H173        H  0.52065103  0.05719024  0.16748426     0.07390
H174        H  0.47925066  0.92456055  0.21403109     0.07240
N175        N  0.29929465  0.90095891  0.12250826    -0.26140
N176        N  0.31715340  0.92497252  0.14849283    -0.34000
C177        C  0.31175979  0.97458733  0.15398574     0.02200
C178        C  0.28906447  0.98207773  0.13061989     0.08220
C179        C  0.28165537  0.93430905  0.11117141    -0.04870
H180        H  0.32387413  0.00296064  0.17181421     0.08890
H181        H  0.26489508  0.92424281  0.09005271     0.10090
Cu182      Cu  0.34846721  0.88848351  0.16627988     0.44170
Cu183      Cu  0.30143144  0.82450942  0.10470241     0.41990
Cu184      Cu  0.35836358  0.75610092  0.11958079     0.43880
N185        N  0.38104234  0.85899217  0.14604194    -0.33530
N186        N  0.38573359  0.81251800  0.12587770    -0.27620
C187        C  0.40904062  0.81168885  0.10906817    -0.03880
C188        C  0.41872386  0.86006380  0.11919474     0.08330
C189        C  0.40050679  0.88843110  0.14260882     0.02130
H190        H  0.41801422  0.77907868  0.08967739     0.09780
H191        H  0.40100509  0.92858695  0.15417452     0.08860
N192        N  0.32427130  0.71986634  0.11627869    -0.34980
N193        N  0.30439994  0.74669231  0.10941382    -0.27160
C194        C  0.28537178  0.71576713  0.11060971    -0.02400
C195        C  0.29300952  0.66610059  0.11871156     0.06210
C196        C  0.31797103  0.67000400  0.12188667     0.04310
H197        H  0.26719327  0.72927223  0.10626017     0.09410
H198        H  0.33053940  0.63909469  0.12880201     0.08250
C199        C  0.97889773  0.20838106  0.44733596     0.04280
C200        C  0.98613906  0.17203579  0.49069537    -0.11870
C201        C  0.00098865  0.13077694  0.47413005     0.01780
C202        C  0.00828399  0.12602236  0.41431798    -0.10400
C203        C  0.00091850  0.16188106  0.37131756     0.04270
C204        C  0.98633565  0.20286089  0.38784359    -0.09820
H205        H  0.98006614  0.17547063  0.53661575     0.09870
H206        H  0.01964767  0.09439159  0.40121345     0.07390
H207        H  0.98049910  0.23019039  0.35408984     0.07240
N208        N  0.79879305  0.25127768  0.45999623    -0.26140
N209        N  0.81809351  0.22485452  0.44775394    -0.34000
C210        C  0.81292683  0.17500294  0.44683221     0.02200
C211        C  0.78881647  0.16966884  0.45891230     0.08220
C212        C  0.78035593  0.21910330  0.46695554    -0.04870
H213        H  0.82589000  0.14540050  0.43778967     0.08890
H214        H  0.76234179  0.23109799  0.47718746     0.10090
Cu215      Cu  0.84978250  0.26035145  0.43656465     0.44170
Cu216      Cu  0.80093403  0.32915668  0.46446743     0.41990
Cu217      Cu  0.85931618  0.39788544  0.45163058     0.43880
N218        N  0.88224095  0.29299444  0.44564833    -0.33530
N219        N  0.88726744  0.34208284  0.45234557    -0.27780
C220        C  0.91130803  0.34583714  0.46029086    -0.03880
C221        C  0.92097330  0.29656006  0.45887497     0.08330
C222        C  0.90203987  0.26475644  0.44941062     0.02130
H223        H  0.92091729  0.38127166  0.46690515     0.09780
H224        H  0.90247691  0.22348211  0.44593951     0.08860
N225        N  0.82485456  0.43336304  0.45127997    -0.34980
N226        N  0.80488269  0.40659988  0.45655139    -0.27160
C227        C  0.78590930  0.43759273  0.45455313    -0.02400
C228        C  0.79357299  0.48731149  0.44766313     0.06210
C229        C  0.81857017  0.48331033  0.44587426     0.04310
H230        H  0.76775124  0.42397596  0.45828956     0.09410
H231        H  0.83121136  0.51430805  0.44095767     0.08250
C232        C  0.54584518  0.94479463  0.44800416     0.04280
C233        C  0.53866975  0.98126170  0.49079250    -0.11870
C234        C  0.52341839  0.02187594  0.47380491     0.01780
C235        C  0.51564513  0.02587686  0.41409622    -0.10400
C236        C  0.52294440  0.98987395  0.37159246     0.04270
C237        C  0.53792336  0.94950506  0.38861340    -0.09820
H238        H  0.54512221  0.97845355  0.53658113     0.09870
H239        H  0.50401316  0.05709813  0.40065629     0.07390
H240        H  0.54374832  0.92210996  0.35526778     0.07240
N241        N  0.72523224  0.90096669  0.46279492    -0.26140
N242        N  0.70659437  0.92698843  0.44370634    -0.34000
C243        C  0.71198085  0.97675052  0.44116928     0.02200
C244        C  0.73549296  0.98216675  0.45908325     0.08220
C245        C  0.74345554  0.93322224  0.47231655    -0.04870
H246        H  0.69971655  0.00637505  0.42680772     0.08890
H247        H  0.76097662  0.92182654  0.48805823     0.10090
Cu248      Cu  0.67518899  0.89154729  0.42668594     0.44170
Cu249      Cu  0.72301201  0.82339907  0.47229523     0.41990
Cu250      Cu  0.66538315  0.75520566  0.45308918     0.43880
N251        N  0.64262040  0.85977986  0.43895521    -0.33530
N252        N  0.63766240  0.81131034  0.45079549    -0.27780
C253        C  0.61383599  0.80831157  0.46191685    -0.03880
C254        C  0.60418983  0.85742221  0.45704110     0.08330
C255        C  0.62292637  0.88838960  0.44239881     0.02130
H256        H  0.60439508  0.77354849  0.47339361     0.09780
H257        H  0.62248491  0.92943225  0.43592557     0.08860
N258        N  0.69970993  0.71948559  0.45467225    -0.34980
N259        N  0.71957951  0.74605111  0.46279763    -0.27160
C260        C  0.73860860  0.71520583  0.46073258    -0.02400
C261        C  0.73103728  0.66583316  0.45073857     0.06210
C262        C  0.70606967  0.66984431  0.44731150     0.04310
H263        H  0.75673928  0.72863797  0.46618496     0.09410
H264        H  0.69351191  0.63912303  0.43955978     0.08250
C265        C  0.56310882  0.90512746  0.46198247    -0.12120
C266        C  0.58020045  0.87671772  0.46405359    -0.13680
C267        C  0.75255944  0.52782320  0.44406379    -0.12200
C268        C  0.77770069  0.53329722  0.44481964     0.09950
C269        C  0.78719459  0.58288951  0.44435068    -0.12200
C270        C  0.77205278  0.62559119  0.44490353    -0.12200
C271        C  0.74692507  0.62005011  0.44621331     0.09950
C272        C  0.73742942  0.57049960  0.44486096    -0.12200
H273        H  0.74426194  0.49055484  0.44343190     0.13940
H274        H  0.80632836  0.58888558  0.44443671     0.13940
H275        H  0.78030016  0.66293067  0.44478039     0.13940
H276        H  0.71829818  0.56448574  0.44543800     0.13940
C277        C  0.78704208  0.07427964  0.45782634    -0.12200
C278        C  0.77518570  0.12157826  0.46136877     0.09950
C279        C  0.75018722  0.12242512  0.46618660    -0.12200
C280        C  0.73728363  0.07696848  0.46626250    -0.12200
C281        C  0.74916023  0.02990197  0.46169210     0.09950
C282        C  0.77413163  0.02886490  0.45804705    -0.12200
H283        H  0.80627556  0.07194517  0.45457230     0.13940
H284        H  0.74044317  0.15803042  0.46908653     0.13940
H285        H  0.71802016  0.07878840  0.46993177     0.13940
H286        H  0.78371304  0.99308006  0.45405958     0.13940
C287        C  0.94514330  0.27765854  0.46359064    -0.12120
C288        C  0.96206936  0.24884341  0.46098852    -0.13680
C289        C  0.50886784  0.99435126  0.25841434    -0.12120
C290        C  0.51518735  0.99398876  0.31015898    -0.13680
C291        C  0.45932834  0.90922093  0.10792686    -0.12120
C292        C  0.44216655  0.88096459  0.10776543    -0.13680
C293        C  0.23705481  0.58314627  0.13161023    -0.12200
C294        C  0.24642982  0.53358879  0.12739977     0.09950
C295        C  0.27141785  0.52802444  0.12106928    -0.12200
C296        C  0.28655368  0.57066806  0.11907811    -0.12200
C297        C  0.27717960  0.62023406  0.12301750     0.09950
C298        C  0.25220232  0.62581753  0.12965749    -0.12200
H299        H  0.21803884  0.58905069  0.13703338     0.13940
H300        H  0.27950276  0.49068968  0.11686004     0.13940
H301        H  0.30555829  0.56470533  0.11354037     0.13940
H302        H  0.24413551  0.66318336  0.13374441     0.13940
C303        C  0.27188293  0.12043040  0.15156819    -0.12200
C304        C  0.25082307  0.12355049  0.11748141     0.09950
C305        C  0.24258571  0.08002867  0.08708217    -0.12200
C306        C  0.25504359  0.03410905  0.09121367    -0.12200
C307        C  0.27598690  0.03079289  0.12581265     0.09950
C308        C  0.28433640  0.07448161  0.15576013    -0.12200
H309        H  0.27859225  0.15311039  0.17599304     0.13940
H310        H  0.22659961  0.08127972  0.05970550     0.13940
H311        H  0.24824293  0.00147960  0.06689264     0.13940
H312        H  0.30029334  0.07329395  0.18321350     0.13940
C313        C  0.01478363  0.15718751  0.25843955    -0.12120
C314        C  0.00843879  0.15732777  0.30999757    -0.13680
C315        C  0.08051197  0.27538799  0.10497784    -0.12120
C316        C  0.06361874  0.24676638  0.11017702    -0.13680
C317        C  0.00929605  0.05981326  0.01725495    -0.12120
C318        C  0.01626576  0.09255738  0.05151510    -0.13680
C319        C  0.96151777  0.90527986  0.96204869    -0.12120
C320        C  0.94445500  0.87679075  0.96362387    -0.13680
C321        C  0.73754138  0.58238749  0.94912183    -0.12200
C322        C  0.74704819  0.53288080  0.94632403     0.09950
C323        C  0.77215655  0.52752677  0.94301734    -0.12200
C324        C  0.78727888  0.57019218  0.94433717    -0.12200
C325        C  0.77780559  0.61963253  0.94872169     0.09950
C326        C  0.75266836  0.62508850  0.95020830    -0.12200
H327        H  0.71842290  0.58827999  0.95137125     0.13940
H328        H  0.78043467  0.49033929  0.93976144     0.13940
H329        H  0.80640100  0.56422538  0.94265664     0.13940
H330        H  0.74439138  0.66232104  0.95272411     0.13940
C331        C  0.77496622  0.12116167  0.97522596    -0.12200
C332        C  0.75009730  0.12079963  0.96683884     0.09950
C333        C  0.73832102  0.07399782  0.95745831    -0.12200
C334        C  0.75117700  0.02855884  0.95620318    -0.12200
C335        C  0.77600979  0.02918464  0.96370256     0.09950
C336        C  0.78784152  0.07568955  0.97340160    -0.12200
H337        H  0.78457396  0.15636807  0.98323103     0.13940
H338        H  0.71923515  0.07213222  0.95023787     0.13940
H339        H  0.74173614  0.99312126  0.94793237     0.13940
H340        H  0.80701124  0.07690548  0.98001960     0.13940
C341        C  0.51552182  0.09433424  0.01723215    -0.12120
C342        C  0.50849692  0.06165250  0.05171088    -0.13680
C343        C  0.57921078  0.27847980  0.96324543    -0.12120
C344        C  0.56227489  0.24981552  0.95928281    -0.13680
C345        C  0.50887703  0.09305735  0.55065444    -0.12120
C346        C  0.51577361  0.06015810  0.51662243    -0.13680
C347        C  0.51506802  0.15837283  0.80926726    -0.12120
C348        C  0.50889085  0.15830600  0.75745380    -0.13680
C349        C  0.44465961  0.27689856  0.60346592    -0.12120
C350        C  0.46168416  0.24830392  0.60535252    -0.13680
C351        C  0.28785557  0.58421280  0.61159710    -0.12200
C352        C  0.27849383  0.53504232  0.61974116     0.09950
C353        C  0.25357613  0.52990835  0.62804330    -0.12200
C354        C  0.23842214  0.57258444  0.62675135    -0.12200
C355        C  0.24773040  0.62172641  0.61745339     0.09950
C356        C  0.27272742  0.62685895  0.61036349    -0.12200
H357        H  0.30682989  0.58979743  0.60495234     0.13940
H358        H  0.24554612  0.49286822  0.63557346     0.13940
H359        H  0.21943234  0.56692565  0.63294748     0.13940
H360        H  0.28089907  0.66373440  0.60301870     0.13940
C361        C  0.23830473  0.07889938  0.61204440    -0.12200
C362        C  0.25004932  0.03301298  0.59795128     0.09950
C363        C  0.27478447  0.03335097  0.58796601    -0.12200
C364        C  0.28759663  0.07874403  0.59256106    -0.12200
C365        C  0.27580690  0.12442177  0.60679616     0.09950
C366        C  0.25108919  0.12428693  0.61617958    -0.12200
H367        H  0.21932005  0.07989996  0.62085845     0.13940
H368        H  0.28426929  0.99875245  0.57628153     0.13940
H369        H  0.30665475  0.07815530  0.58436249     0.13940
H370        H  0.24170092  0.15902345  0.62796620     0.13940
C371        C  0.01575251  0.05970076  0.55177010    -0.12120
C372        C  0.00876444  0.09263010  0.51745955    -0.13680
C373        C  0.01533691  0.99418131  0.75898723    -0.12120
C374        C  0.00913780  0.99417726  0.81067505    -0.13680
C375        C  0.07952152  0.87530677  0.60394323    -0.12120
C376        C  0.06261221  0.90391137  0.60883096    -0.13680
loop_ 
_geom_bond_atom_site_label_1 
_geom_bond_atom_site_label_2 
_geom_bond_distance 
_geom_bond_site_symmetry_2 
_ccdc_geom_bond_type 
C1            C2   1.398       .  A
C1            C6   1.412       .  A
C1          C376   1.449       .  S
C2            C3   1.398       .  A
C2            H7   1.085       .  S
C3            C4   1.400   1_565  A
C3          C373   1.437       .  S
C4            C5   1.402       .  A
C4            H8   1.085       .  S
C5            C6   1.412   1_545  A
C5          C371   1.452       .  S
C6            H9   1.084       .  S
N10          N11   1.311       .  A
N10          C14   1.340       .  A
N10         Cu18   2.040       .  S
N11          C12   1.335       .  A
N11         Cu17   2.013       .  S
C12          C13   1.381       .  A
C12          H15   1.081   1_565  S
C13          C14   1.388       .  A
C13         C362   1.467   1_565  S
C14          H16   1.081       .  S
Cu17         N20   2.012       .  S
Cu18         N28   2.041       .  S
Cu19         N21   2.140       .  S
Cu19         N27   2.141       .  S
N20          N21   1.323       .  A
N20          C24   1.333       .  A
N21          C22   1.359       .  A
C22          C23   1.398       .  A
C22          H25   1.082       .  S
C23          C24   1.362       .  A
C23         C375   1.442       .  S
C24          H26   1.083       .  S
N27          N28   1.324       .  A
N27          C31   1.358       .  A
N28          C29   1.335       .  A
C29          C30   1.377       .  A
C29          H32   1.080       .  S
C30          C31   1.403       .  A
C30         C355   1.495       .  S
C31          H33   1.081       .  S
C34          C35   1.399       .  A
C34          C39   1.411       .  A
C34         C350   1.449       .  S
C35          C36   1.398       .  A
C35          H40   1.085       .  S
C36          C37   1.400       .  A
C36         C348   1.438       .  S
C37          C38   1.402       .  A
C37          H41   1.085       .  S
C38          C39   1.412       .  A
C38         C345   1.451       .  S
C39          H42   1.084       .  S
N43          N44   1.314       .  A
N43          C47   1.339       .  A
N43         Cu51   2.038       .  S
N44          C45   1.337       .  A
N44         Cu50   2.021       .  S
C45          C46   1.380       .  A
C45          H48   1.082       .  S
C46          C47   1.384       .  A
C46         C365   1.461       .  S
C47          H49   1.082       .  S
Cu50         N53   2.021       .  S
Cu51         N61   2.039       .  S
Cu52         N54   2.136       .  S
Cu52         N60   2.136       .  S
N53          N54   1.324       .  A
N53          C57   1.334       .  A
N54          C55   1.359       .  A
C55          C56   1.397       .  A
C55          H58   1.082       .  S
C56          C57   1.364       .  A
C56         C349   1.443       .  S
C57          H59   1.083       .  S
N60          N61   1.323       .  A
N60          C64   1.357       .  A
N61          C62   1.336       .  A
C62          C63   1.376       .  A
C62          H65   1.080       .  S
C63          C64   1.402       .  A
C63         C352   1.493       .  S
C64          H66   1.081       .  S
C67          C68   1.398       .  A
C67          C72   1.412       .  A
C67         C344   1.450       .  S
C68          C69   1.398       .  A
C68          H73   1.085       .  S
C69          C70   1.400       .  A
C69         C347   1.437       .  S
C70          C71   1.402       .  A
C70          H74   1.085       .  S
C71          C72   1.413       .  A
C71         C341   1.452   1_556  S
C72          H75   1.084   1_556  S
N76          N77   1.311       .  A
N76          C80   1.340       .  A
N76         Cu84   2.042       .  S
N77          C78   1.335       .  A
N77         Cu83   2.012       .  S
C78          C79   1.382       .  A
C78          H81   1.081       .  S
C79          C80   1.389       .  A
C79         C332   1.470       .  S
C80          H82   1.081       .  S
Cu83         N86   2.011       .  S
Cu84         N94   2.044       .  S
Cu85         N87   2.141       .  S
Cu85         N93   2.142       .  S
N86          N87   1.323       .  A
N86          C90   1.333       .  A
N87          C88   1.360       .  A
C88          C89   1.399       .  A
C88          H91   1.082       .  S
C89          C90   1.362       .  A
C89         C343   1.442       .  S
C90          H92   1.083       .  S
N93          N94   1.324       .  A
N93          C97   1.358       .  A
N94          C95   1.336       .  A
C95          C96   1.377       .  A
C95          H98   1.080       .  S
C96          C97   1.403       .  A
C96         C322   1.495       .  S
C97          H99   1.081       .  S
C100        C101   1.399       .  A
C100        C105   1.411       .  A
C100        C319   1.450       .  S
C101        C102   1.398   1_655  A
C101        H106   1.085       .  S
C102        C103   1.400   1_565  A
C102        C374   1.437       .  S
C103        C104   1.402       .  A
C103        H107   1.085       .  S
C104        C105   1.412   1_445  A
C104        C317   1.451   1_556  S
C105        H108   1.084   1_556  S
N109        N110   1.314       .  A
N109        C113   1.340       .  A
N109       Cu117   2.040       .  S
N110        C111   1.337       .  A
N110       Cu116   2.023       .  S
C111        C112   1.380       .  A
C111        H114   1.082   1_565  S
C112        C113   1.384       .  A
C112        C335   1.462   1_565  S
C113        H115   1.082       .  S
Cu116       N119   2.022       .  S
Cu117       N127   2.041       .  S
Cu118       N120   2.136       .  S
Cu118       N126   2.136       .  S
N119        N120   1.324       .  A
N119        C123   1.334       .  A
N120        C121   1.359       .  A
C121        C122   1.397       .  A
C121        H124   1.082       .  S
C122        C123   1.365       .  A
C122        C320   1.443       .  S
C123        H125   1.083       .  S
N126        N127   1.323       .  A
N126        C130   1.357       .  A
N127        C128   1.336       .  A
C128        C129   1.378       .  A
C128        H131   1.080       .  S
C129        C130   1.403       .  A
C129        C325   1.495       .  S
C130        H132   1.081       .  S
C133        C134   1.412       .  A
C133        C138   1.398       .  A
C133        C316   1.449       .  S
C134        C135   1.412       .  A
C134        H139   1.084       .  S
C135        C136   1.402       .  A
C135        C318   1.451       .  S
C136        C137   1.400       .  A
C136        H140   1.085       .  S
C137        C138   1.398       .  A
C137        C313   1.437       .  S
C138        H141   1.085       .  S
N142        N143   1.313       .  A
N142        C146   1.340       .  A
N142       Cu150   2.045       .  S
N143        C144   1.337       .  A
N143       Cu149   2.023       .  S
C144        C145   1.383       .  A
C144        H147   1.081       .  S
C145        C146   1.387       .  A
C145        C304   1.470       .  S
C146        H148   1.081       .  S
Cu149       N152   2.022       .  S
Cu150       N160   2.046       .  S
Cu151       N153   2.137       .  S
Cu151       N159   2.137       .  S
N152        N153   1.323       .  A
N152        C156   1.335       .  A
N153        C154   1.359       .  A
C154        C155   1.397       .  A
C154        H157   1.082       .  S
C155        C156   1.364       .  A
C155        C315   1.443       .  S
C156        H158   1.083       .  S
N159        N160   1.324       .  A
N159        C163   1.357       .  A
N160        C161   1.337       .  A
C161        C162   1.377       .  A
C161        H164   1.080       .  S
C162        C163   1.402       .  A
C162        C294   1.494       .  S
C163        H165   1.081       .  S
C166        C167   1.411       .  A
C166        C171   1.400       .  A
C166        C291   1.450       .  S
C167        C168   1.412   1_565  A
C167        H172   1.084       .  S
C168        C169   1.403       .  A
C168        C342   1.452       .  S
C169        C170   1.400   1_545  A
C169        H173   1.085       .  S
C170        C171   1.398       .  A
C170        C289   1.439       .  S
C171        H174   1.085       .  S
N175        N176   1.314       .  A
N175        C179   1.340       .  A
N175       Cu183   2.043       .  S
N176        C177   1.338       .  A
N176       Cu182   2.032       .  S
C177        C178   1.384       .  A
C177        H180   1.081   1_565  S
C178        C179   1.387       .  A
C178        C307   1.472   1_565  S
C179        H181   1.081       .  S
Cu182       N185   2.031       .  S
Cu183       N193   2.044       .  S
Cu184       N186   2.131       .  S
Cu184       N192   2.131       .  S
N185        N186   1.324       .  A
N185        C189   1.336       .  A
N186        C187   1.358       .  A
C187        C188   1.395       .  A
C187        H190   1.082       .  S
C188        C189   1.367       .  A
C188        C292   1.444       .  S
C189        H191   1.083       .  S
N192        N193   1.322       .  A
N192        C196   1.356       .  A
N193        C194   1.337       .  A
C194        C195   1.378       .  A
C194        H197   1.080       .  S
C195        C196   1.402       .  A
C195        C297   1.494       .  S
C196        H198   1.081       .  S
C199        C200   1.411       .  A
C199        C204   1.399       .  A
C199        C288   1.450       .  S
C200        C201   1.413   1_655  A
C200        H205   1.084       .  S
C201        C202   1.402       .  A
C201        C372   1.452       .  S
C202        C203   1.399       .  A
C202        H206   1.085       .  S
C203        C204   1.398   1_455  A
C203        C314   1.437       .  S
C204        H207   1.085       .  S
N208        N209   1.312       .  A
N208        C212   1.340       .  A
N208       Cu216   2.043       .  S
N209        C210   1.336       .  A
N209       Cu215   2.017       .  S
C210        C211   1.383       .  A
C210        H213   1.081       .  S
C211        C212   1.389       .  A
C211        C278   1.472       .  S
C212        H214   1.081       .  S
Cu215       N218   2.016       .  S
Cu216       N226   2.044       .  S
Cu217       N219   2.139       .  S
Cu217       N225   2.139       .  S
N218        N219   1.323       .  A
N218        C222   1.333       .  A
N219        C220   1.359       .  A
C220        C221   1.398       .  A
C220        H223   1.082       .  S
C221        C222   1.363       .  A
C221        C287   1.443       .  S
C222        H224   1.083       .  S
N225        N226   1.324       .  A
N225        C229   1.357       .  A
N226        C227   1.336       .  A
C227        C228   1.377       .  A
C227        H230   1.080       .  S
C228        C229   1.403       .  A
C228        C268   1.496       .  S
C229        H231   1.081       .  S
C232        C233   1.411       .  A
C232        C237   1.400       .  A
C232        C265   1.449       .  S
C233        C234   1.412   1_565  A
C233        H238   1.084       .  S
C234        C235   1.402       .  A
C234        C346   1.451       .  S
C235        C236   1.400   1_545  A
C235        H239   1.085       .  S
C236        C237   1.398       .  A
C236        C290   1.439       .  S
C237        H240   1.085       .  S
N241        N242   1.314       .  A
N241        C245   1.340       .  A
N241       Cu249   2.043       .  S
N242        C243   1.337       .  A
N242       Cu248   2.022       .  S
C243        C244   1.381       .  A
C243        H246   1.082   1_565  S
C244        C245   1.386       .  A
C244        C281   1.465   1_565  S
C245        H247   1.081       .  S
Cu248       N251   2.022       .  S
Cu249       N259   2.044       .  S
Cu250       N252   2.135       .  S
Cu250       N258   2.135       .  S
N251        N252   1.323       .  A
N251        C255   1.334       .  A
N252        C253   1.359       .  A
C253        C254   1.397       .  A
C253        H256   1.082       .  S
C254        C255   1.364       .  A
C254        C266   1.443       .  S
C255        H257   1.083       .  S
N258        N259   1.323       .  A
N258        C262   1.357       .  A
N259        C260   1.336       .  A
C260        C261   1.378       .  A
C260        H263   1.080       .  S
C261        C262   1.402       .  A
C261        C271   1.495       .  S
C262        H264   1.081       .  S
C265        C266   1.211       .  T
C267        C268   1.414       .  A
C267        C272   1.401       .  A
C267        H273   1.080       .  S
C268        C269   1.402       .  A
C269        C270   1.402       .  A
C269        H274   1.082       .  S
C270        C271   1.414       .  A
C270        H275   1.080       .  S
C271        C272   1.401       .  A
C272        H276   1.082       .  S
C277        C278   1.406       .  A
C277        C282   1.390       .  A
C277        H283   1.080       .  S
C278        C279   1.403       .  A
C279        C280   1.391       .  A
C279        H284   1.081       .  S
C280        C281   1.403       .  A
C280        H285   1.082       .  S
C281        C282   1.400       .  A
C282        H286   1.082   1_545  S
C287        C288   1.212       .  T
C289        C290   1.205       .  T
C291        C292   1.212       .  T
C293        C294   1.402       .  A
C293        C298   1.402       .  A
C293        H299   1.082       .  S
C294        C295   1.413       .  A
C295        C296   1.401       .  A
C295        H300   1.080       .  S
C296        C297   1.401       .  A
C296        H301   1.082       .  S
C297        C298   1.413       .  A
C298        H302   1.081       .  S
C303        C304   1.402       .  A
C303        C308   1.392       .  A
C303        H309   1.082       .  S
C304        C305   1.404       .  A
C305        C306   1.391       .  A
C305        H310   1.081       .  S
C306        C307   1.403       .  A
C306        H311   1.081       .  S
C307        C308   1.405       .  A
C308        H312   1.081       .  S
C313        C314   1.204       .  T
C315        C316   1.211       .  T
C317        C318   1.213       .  T
C319        C320   1.212       .  T
C321        C322   1.401       .  A
C321        C326   1.402       .  A
C321        H327   1.082       .  S
C322        C323   1.414       .  A
C323        C324   1.401       .  A
C323        H328   1.080       .  S
C324        C325   1.401       .  A
C324        H329   1.082       .  S
C325        C326   1.414       .  A
C326        H330   1.080       .  S
C331        C332   1.403       .  A
C331        C336   1.391       .  A
C331        H337   1.081       .  S
C332        C333   1.406       .  A
C333        C334   1.389       .  A
C333        H338   1.080       .  S
C334        C335   1.399       .  A
C334        H339   1.083   1_545  S
C335        C336   1.402       .  A
C336        H340   1.082       .  S
C341        C342   1.214       .  T
C343        C344   1.211       .  T
C345        C346   1.213       .  T
C347        C348   1.204       .  T
C349        C350   1.211       .  T
C351        C352   1.400       .  A
C351        C356   1.400       .  A
C351        H357   1.082       .  S
C352        C353   1.413       .  A
C353        C354   1.401       .  A
C353        H358   1.081       .  S
C354        C355   1.402       .  A
C354        H359   1.082       .  S
C355        C356   1.414       .  A
C356        H360   1.079       .  S
C361        C362   1.405       .  A
C361        C366   1.389       .  A
C361        H367   1.081       .  S
C362        C363   1.402       .  A
C363        C364   1.391       .  A
C363        H368   1.082   1_545  S
C364        C365   1.402       .  A
C364        H369   1.082       .  S
C365        C366   1.399       .  A
C366        H370   1.083       .  S
C371        C372   1.213       .  T
C373        C374   1.204       .  T
C375        C376   1.211       .  T
