geometry optimzed in LAMMPS
_audit_creation_date              2020-11-30 
_audit_creation_method            'lammps2cif' 
_symmetry_space_group_name_H-M    'P1' 
_symmetry_Int_Tables_number       1 
_symmetry_cell_setting            triclinic 
loop_ 
_symmetry_equiv_pos_as_xyz 
  x,y,z 
_cell_length_a                    28.93437886 
_cell_length_b                    29.130787339597287 
_cell_length_c                    28.789576726741622 
_cell_angle_alpha                 90.9243516744387 
_cell_angle_beta                  90.17404688646411 
_cell_angle_gamma                 90.50142432678872 
loop_ 
_atom_site_label 
_atom_site_type_symbol 
_atom_site_fract_x 
_atom_site_fract_y 
_atom_site_fract_z 
_atom_site_charge 
N1          N  0.34166393  0.49874973  0.99317175    -0.02600
C2          C  0.31608174  0.51671356  0.02906358     0.00000
C3          C  0.27253221  0.52832795  0.01384661    -0.22900
C4          C  0.27020654  0.51709980  0.96777594    -0.23100
C5          C  0.31253556  0.49910177  0.95564736    -0.00100
H6          H  0.24483755  0.54251352  0.03464806     0.13700
H7          H  0.24020694  0.52042185  0.94556212     0.13700
N8          N  0.38849681  0.48371646  0.99303580    -0.02600
C9          C  0.41776077  0.48506365  0.95569632     0.00000
C10         C  0.45388619  0.45497952  0.96150504    -0.22900
C11         C  0.44692106  0.43361354  0.00250939    -0.23100
C12         C  0.40729114  0.45167858  0.02164625    -0.00100
H13         H  0.48378681  0.45081364  0.93938875     0.13700
H14         H  0.47075878  0.41041137  0.01893739     0.13700
N15         N  0.36999406  0.99045366  0.46853681    -0.02600
C16         C  0.37176747  0.94990474  0.44370289     0.00000
C17         C  0.39646405  0.95558889  0.40321274    -0.22900
C18         C  0.40999362  0.00044841  0.40204600    -0.23100
C19         C  0.39332243  0.02146778  0.44179338    -0.00100
H20         H  0.40295111  0.92979066  0.37658781     0.13700
H21         H  0.42877093  0.01667207  0.37418642     0.13700
N22         N  0.34978057  0.99740060  0.51322247    -0.02600
C23         C  0.34493021  0.96408550  0.54598081     0.00000
C24         C  0.30925331  0.97475580  0.57591232    -0.22900
C25         C  0.29180778  0.01570871  0.56224755    -0.23100
C26         C  0.31716373  0.02964518  0.52437517    -0.00100
H27         H  0.29842843  0.95577549  0.60605937     0.13700
H28         H  0.26609992  0.03554266  0.58080939     0.13700
N29         N  0.85996056  0.48318852  0.51564194    -0.02600
C30         C  0.88887421  0.46589225  0.54860943     0.00000
C31         C  0.86595636  0.43345405  0.57461023    -0.22900
C32         C  0.82207627  0.42975973  0.55735944    -0.23100
C33         C  0.81910558  0.45993133  0.52102994    -0.00100
H34         H  0.88080962  0.41205133  0.60107838     0.13700
H35         H  0.79575484  0.40576385  0.56853614     0.13700
N36         N  0.86462919  0.52597765  0.49268108    -0.02600
C37         C  0.82987854  0.55701351  0.48725417     0.00000
C38         C  0.84139556  0.58819134  0.45348782    -0.22900
C39         C  0.88397833  0.57637209  0.43724376    -0.23100
C40         C  0.89813254  0.53867146  0.46182357    -0.00100
H41         H  0.82210330  0.61818810  0.44364343     0.13500
H42         H  0.90454622  0.59598614  0.41312049     0.13700
N43         N  0.28010365  0.28165914  0.59931966    -0.26400
N44         N  0.24792336  0.28380725  0.56677029    -0.34300
C45         C  0.25318328  0.24814865  0.53687453     0.01900
C46         C  0.29040573  0.22173103  0.55116072     0.07900
C47         C  0.30610942  0.24435480  0.59125170    -0.05200
H48         H  0.23015452  0.24101623  0.50800196     0.08600
H49         H  0.33240686  0.23310549  0.61514530     0.09800
Cu50       Cu  0.19483939  0.33204398  0.56748860     0.44200
Cu51       Cu  0.28562590  0.32703538  0.65606040     0.42000
Cu52       Cu  0.20373844  0.42053175  0.65530552     0.43900
N53         N  0.14593477  0.38385284  0.57606042    -0.33800
N54         N  0.15048840  0.41764259  0.60686884    -0.28100
C55         C  0.11309329  0.44470520  0.60478579    -0.04200
C56         C  0.08285732  0.42713662  0.57116422     0.08000
C57         C  0.10508436  0.38811340  0.55412670     0.01800
H58         H  0.10762622  0.47403526  0.62754687     0.09500
H59         H  0.09174800  0.36285600  0.52961027     0.08600
N60         N  0.25228872  0.41108804  0.70745210    -0.35300
N61         N  0.28198222  0.37690457  0.70883804    -0.27400
C62         C  0.30670349  0.38054261  0.74866090    -0.02700
C63         C  0.29167750  0.41893808  0.77345374     0.05900
C64         C  0.25722289  0.43718034  0.74597624     0.04000
H65         H  0.33382629  0.35726559  0.75843351     0.09100
H66         H  0.23639824  0.46694866  0.75388016     0.08000
N67         N  0.61280810  0.65885955  0.61474089    -0.26400
N68         N  0.61783606  0.63018754  0.64956580    -0.34300
C69         C  0.65457662  0.60304788  0.64092009     0.01900
C70         C  0.67361044  0.61498856  0.59849021     0.07900
C71         C  0.64595233  0.65044316  0.58310039    -0.05200
H72         H  0.66542308  0.57546289  0.66306536     0.08600
H73         H  0.64946151  0.66862377  0.55080638     0.09800
Cu74       Cu  0.57208142  0.62745749  0.70572586     0.44200
Cu75       Cu  0.56016542  0.70772057  0.61030128     0.42000
Cu76       Cu  0.47721940  0.70690470  0.70510504     0.43900
N77         N  0.51959679  0.62841824  0.75571612    -0.33800
N78         N  0.48494900  0.65772488  0.75588329    -0.28100
C79         C  0.45545541  0.64707692  0.79042578    -0.04200
C80         C  0.47223848  0.60902220  0.81303162     0.08000
C81         C  0.51285879  0.59821785  0.78992116     0.01800
H82         H  0.42279056  0.66385847  0.79658488     0.09500
H83         H  0.53481749  0.56907074  0.79622143     0.08600
N84         N  0.47417963  0.75157157  0.64971122    -0.35300
N85         N  0.50402808  0.75265169  0.61501713    -0.27400
C86         C  0.49121662  0.78585610  0.58547558    -0.02700
C87         C  0.45104335  0.80599820  0.60213658     0.05900
C88         C  0.44177022  0.78355784  0.64312968     0.04000
H89         H  0.50936775  0.79430111  0.55389414     0.09100
H90         H  0.41371747  0.79031482  0.66695401     0.08000
N91         N  0.15268962  0.60147682  0.41744115    -0.26400
N92         N  0.15863239  0.56413831  0.39152508    -0.34300
C93         C  0.12291333  0.53507441  0.39848414     0.01900
C94         C  0.09198111  0.55528319  0.42949889     0.07900
C95         C  0.11274810  0.59728770  0.44092091    -0.05200
H96         H  0.11974888  0.50209945  0.38114421     0.08600
H97         H  0.09869424  0.62410513  0.46295617     0.09800
Cu98       Cu  0.21123840  0.55697541  0.34223614     0.44200
Cu99       Cu  0.19772399  0.65797668  0.41822489     0.42000
Cu100      Cu  0.29398306  0.64954432  0.33812237     0.43900
N101        N  0.26139570  0.56241861  0.29028184    -0.33800
N102        N  0.29217821  0.59613438  0.28931831    -0.28100
C103        C  0.31701492  0.59247097  0.24996246    -0.04200
C104        C  0.30127972  0.55457650  0.22437223     0.08000
C105        C  0.26565282  0.53665662  0.25125260     0.01800
H106        H  0.34324153  0.61696142  0.23979130     0.09500
H107        H  0.24222916  0.50892078  0.24182760     0.08600
N108        N  0.28549800  0.70349308  0.38548754    -0.35300
N109        N  0.25007256  0.70757636  0.41412671    -0.27400
C110        C  0.25484911  0.74717847  0.43877070    -0.02700
C111        C  0.29565133  0.76864119  0.42551898     0.05900
C112        C  0.31368040  0.74004912  0.39125787     0.04000
H113        H  0.23060048  0.75929615  0.46463222     0.09100
H114        H  0.34451837  0.74590306  0.37098955     0.08000
N115        N  0.45415786  0.27623944  0.38149343    -0.26400
N116        N  0.49044255  0.27258535  0.40888487    -0.34300
C117        C  0.48643335  0.23364915  0.43314257     0.01900
C118        C  0.44495390  0.21149760  0.42113677     0.07900
C119        C  0.42578040  0.24022570  0.38803177    -0.05200
H120        H  0.51342159  0.22188199  0.45576586     0.08600
H121        H  0.39446310  0.23475394  0.36815264     0.09800
Cu122      Cu  0.54465604  0.32001992  0.40878884     0.44200
Cu123      Cu  0.44890586  0.32589390  0.33105528     0.42000
Cu124      Cu  0.54952555  0.40044982  0.31309566     0.43900
N125        N  0.59452038  0.37151562  0.40266637    -0.33800
N126        N  0.59784849  0.39997341  0.36742592    -0.28100
C127        C  0.63443050  0.42836502  0.37490062    -0.04200
C128        C  0.65426693  0.41777348  0.41730392     0.08000
C129        C  0.62815467  0.38144184  0.43358153     0.01800
H130        H  0.64500402  0.45548027  0.35187647     0.09500
H131        H  0.63337518  0.36331918  0.46564533     0.08600
N132        N  0.49230217  0.39637619  0.26835944    -0.35300
N133        N  0.45561702  0.37009879  0.27572374    -0.27400
C134        C  0.42536042  0.37487339  0.24057352    -0.02700
C135        C  0.44374609  0.40547887  0.20911415     0.05900
C136        C  0.48613226  0.41859004  0.22817460     0.04000
H137        H  0.39246561  0.35709857  0.23823582     0.09100
H138        H  0.51125484  0.44175257  0.21325203     0.08000
C139        C  0.94828592  0.52911503  0.46315733     0.00700
C140        C  0.96814096  0.50661789  0.42482197    -0.11200
C141        C  0.01544056  0.51140825  0.41477635     0.02900
C142        C  0.04413001  0.54015593  0.44319256     0.00600
C143        C  0.02456967  0.55968207  0.48363374    -0.11100
C144        C  0.97726377  0.55504732  0.49328159     0.02800
H145        H  0.94590297  0.48779134  0.40071914     0.15800
H146        H  0.04567982  0.58097764  0.50662520     0.15800
C147        C  0.95816863  0.58093314  0.53179733     0.37500
C148        C  0.03173626  0.48922543  0.37287717     0.37400
N149        N  0.94241150  0.60167839  0.56239390    -0.42900
N150        N  0.04399379  0.47095577  0.33916076    -0.42900
C151        C  0.78774944  0.56299888  0.51656626     0.00700
C152        C  0.79129950  0.56378618  0.56526903    -0.11200
C153        C  0.75408324  0.57857308  0.59315471     0.02900
C154        C  0.71243371  0.59322583  0.57217117     0.00600
C155        C  0.70823959  0.58941589  0.52368161    -0.11100
C156        C  0.74497203  0.57438936  0.49605280     0.02800
H157        H  0.82392375  0.55516979  0.58144410     0.15800
H158        H  0.67611583  0.59887672  0.50702479     0.15800
C159        C  0.73774441  0.57086474  0.44644274     0.37500
C160        C  0.76093307  0.58128027  0.64277217     0.37400
N161        N  0.73211034  0.56804387  0.40668443    -0.42900
N162        N  0.76680970  0.58327443  0.68253876    -0.42900
C163        C  0.77706088  0.46104069  0.49094609     0.00700
C164        C  0.73390172  0.46135958  0.51318472    -0.11200
C165        C  0.69315894  0.45089974  0.48888461     0.02900
C166        C  0.69486674  0.43921942  0.44118091     0.00600
C167        C  0.73731757  0.44292627  0.41783672    -0.11100
C168        C  0.77838919  0.45352986  0.44234507     0.02800
H169        H  0.73226610  0.46808507  0.55032452     0.15800
H170        H  0.73892170  0.43440367  0.38107894     0.15800
C171        C  0.82156940  0.45232788  0.41752057     0.37500
C172        C  0.65002695  0.45167043  0.51397984     0.37400
N173        N  0.85602266  0.45121670  0.39725968    -0.42900
N174        N  0.61547403  0.45242824  0.53410470    -0.42900
C175        C  0.03463549  0.44295639  0.56124096     0.00700
C176        C  0.01088789  0.46820761  0.59572802    -0.11200
C177        C  0.96415221  0.47956125  0.59044620     0.02900
C178        C  0.94004945  0.46669635  0.54958586     0.00600
C179        C  0.96360720  0.44203357  0.51493414    -0.11100
C180        C  0.01058076  0.43136830  0.51961842     0.02800
H181        H  0.02793397  0.47713696  0.62821706     0.15800
H182        H  0.94474571  0.43003356  0.48437645     0.15800
C183        C  0.03265352  0.40865277  0.48083746     0.37500
C184        C  0.94055096  0.50142070  0.62889907     0.37400
N185        N  0.04995473  0.39048366  0.44944243    -0.42900
N186        N  0.92136983  0.51846776  0.65979269    -0.42900
C187        C  0.31809894  0.07961425  0.51491675     0.00700
C188        C  0.35175001  0.10643276  0.53809235    -0.11200
C189        C  0.34601798  0.15378230  0.54553546     0.02900
C190        C  0.30383123  0.17491013  0.53333068     0.00600
C191        C  0.27162041  0.14867991  0.50717774    -0.11100
C192        C  0.27840952  0.10173370  0.49795181     0.02800
H193        H  0.38175181  0.08975824  0.55266340     0.15800
H194        H  0.23936332  0.16381236  0.49636368     0.15800
C195        C  0.24199833  0.07631462  0.47449714     0.37500
C196        C  0.38405775  0.17929402  0.56605301     0.37400
N197        N  0.21220407  0.05687514  0.45559955    -0.42900
N198        N  0.41485428  0.19958268  0.58223116    -0.42900
C199        C  0.42396697  0.84414753  0.58192758     0.00700
C200        C  0.44708752  0.88325209  0.56550564    -0.11200
C201        C  0.42253684  0.92247780  0.55218617     0.02900
C202        C  0.37369955  0.92227863  0.55306265     0.00600
C203        C  0.35079691  0.88199292  0.56698831    -0.11100
C204        C  0.37515129  0.84365715  0.58192054     0.02800
H205        H  0.48456628  0.88428861  0.56595155     0.15800
H206        H  0.31331444  0.88088438  0.56746353     0.15800
C207        C  0.34884768  0.80459887  0.59774239     0.37500
C208        C  0.44867116  0.96340114  0.54245285     0.37400
N209        N  0.32758623  0.77362564  0.61092660    -0.42900
N210        N  0.47098883  0.99568439  0.53568036    -0.42900
C211        C  0.35078426  0.90422572  0.45372604     0.00700
C212        C  0.38033169  0.86628021  0.45087110    -0.11200
C213        C  0.36298905  0.82160654  0.44516255     0.02900
C214        C  0.31486513  0.81391077  0.44135655     0.00600
C215        C  0.28507310  0.85114393  0.44915691    -0.11100
C216        C  0.30263018  0.89609927  0.45529742     0.02800
H217        H  0.41743116  0.87191516  0.45077086     0.15800
H218        H  0.24801601  0.84560749  0.44765597     0.15800
C219        C  0.27030311  0.93300928  0.46084008     0.37500
C220        C  0.39561142  0.78443667  0.44284926     0.37400
N221        N  0.24343239  0.96175024  0.46605337    -0.42900
N222        N  0.42189213  0.75474768  0.44108747    -0.42900
C223        C  0.39793289  0.07191850  0.44704748     0.00700
C224        C  0.43470160  0.09066558  0.47291936    -0.11200
C225        C  0.44842317  0.13673833  0.46833574     0.02900
C226        C  0.42726978  0.16462029  0.43432424     0.00600
C227        C  0.38895620  0.14586445  0.40994564    -0.11100
C228        C  0.37436061  0.10043551  0.41600509     0.02800
H229        H  0.45348699  0.06902224  0.49646613     0.15800
H230        H  0.37085522  0.16576707  0.38440112     0.15800
C231        C  0.33675484  0.08274262  0.38760505     0.37500
C232        C  0.48350176  0.15366208  0.50002700     0.37400
N233        N  0.30678417  0.06841229  0.36478870    -0.42900
N234        N  0.51120032  0.16641931  0.52642978    -0.42900
C235        C  0.40110601  0.44650438  0.07214700     0.00700
C236        C  0.38861024  0.40289876  0.08819794    -0.11200
C237        C  0.40021811  0.38917774  0.13325565     0.02900
C238        C  0.42434228  0.41984186  0.16361399     0.00600
C239        C  0.43407291  0.46445920  0.14840252    -0.11100
C240        C  0.42359188  0.47759125  0.10302538     0.02800
H241        H  0.37351711  0.37804248  0.06399006     0.15800
H242        H  0.45228717  0.48846408  0.17122884     0.15800
C243        C  0.44001698  0.52171023  0.08753240     0.37500
C244        C  0.39178087  0.34183262  0.14492752     0.37400
N245        N  0.45307861  0.55705292  0.07501021    -0.42900
N246        N  0.38522416  0.30371940  0.15381303    -0.42900
C247        C  0.44839279  0.57968687  0.84751039     0.00700
C248        C  0.44615440  0.53250542  0.83795297    -0.11200
C249        C  0.43105258  0.50166219  0.87130966     0.02900
C250        C  0.41816513  0.51758887  0.91616468     0.00600
C251        C  0.41631372  0.56523936  0.92456998    -0.11100
C252        C  0.43107647  0.59640101  0.89043859     0.02800
H253        H  0.45788476  0.51940389  0.80456866     0.15800
H254        H  0.40661546  0.57796665  0.95873570     0.15800
C255        C  0.43146206  0.64486418  0.90157409     0.37500
C256        C  0.43157472  0.45337158  0.85907246     0.37400
N257        N  0.43164591  0.68373290  0.91056158    -0.42900
N258        N  0.43249014  0.41474397  0.84912919    -0.42900
C259        C  0.31982039  0.47957770  0.90831128     0.00700
C260        C  0.32519671  0.43201932  0.90201407    -0.11200
C261        C  0.31865347  0.41111884  0.85793207     0.02900
C262        C  0.30726393  0.43830792  0.81921338     0.00600
C263        C  0.30560066  0.48615311  0.82533747    -0.11100
C264        C  0.31086034  0.50671227  0.86915323     0.02800
H265        H  0.33114518  0.41085583  0.93206658     0.15800
H266        H  0.29777856  0.50766929  0.79599253     0.15800
C267        C  0.30371043  0.55562907  0.87345230     0.37500
C268        C  0.32003695  0.36169685  0.85450758     0.37400
N269        N  0.29723916  0.59467856  0.87688179    -0.42900
N270        N  0.32109997  0.32202235  0.85210267    -0.42900
C271        C  0.32717372  0.52267335  0.07902219     0.00700
C272        C  0.31234334  0.48816292  0.10916836    -0.11200
C273        C  0.30737364  0.49664425  0.15699725     0.02900
C274        C  0.31401413  0.54157987  0.17546245     0.00600
C275        C  0.33019617  0.57585208  0.14538698    -0.11100
C276        C  0.33643980  0.56684295  0.09773270     0.02800
H277        H  0.30306492  0.45463068  0.09488364     0.15800
H278        H  0.33546651  0.61061662  0.15837624     0.15800
C279        C  0.34889084  0.60434765  0.06789637     0.37500
C280        C  0.29557024  0.45834709  0.18595165     0.37400
N281        N  0.35878833  0.63432886  0.04387738    -0.42900
N282        N  0.28639083  0.42733814  0.20890708    -0.42900
loop_ 
_geom_bond_atom_site_label_1 
_geom_bond_atom_site_label_2 
_geom_bond_distance 
_geom_bond_site_symmetry_2 
_ccdc_geom_bond_type 
N1            C5   1.368       .  A
N1            C2   1.372   1_556  A
N1            N8   1.428       .  S
C2            C3   1.380       .  A
C2          C271   1.480       .  S
C3            C4   1.362   1_554  A
C3            H6   1.083       .  S
C4            C5   1.380       .  A
C4            H7   1.083       .  S
C5          C259   1.485       .  S
N8           C12   1.370   1_556  A
N8            C9   1.371       .  A
C9           C10   1.381       .  A
C9          C250   1.493       .  S
C10          C11   1.358   1_556  A
C10          H13   1.082       .  S
C11          C12   1.379       .  A
C11          H14   1.083       .  S
C12         C235   1.475       .  S
N15          C19   1.371   1_565  A
N15          C16   1.372       .  A
N15          N22   1.427       .  S
C16          C17   1.381       .  A
C16         C211   1.491       .  S
C17          C18   1.362   1_565  A
C17          H20   1.083       .  S
C18          C19   1.379       .  A
C18          H21   1.083       .  S
C19         C223   1.480       .  S
N22          C26   1.372   1_565  A
N22          C23   1.371       .  A
C23          C24   1.381       .  A
C23         C202   1.497       .  S
C24          C25   1.363   1_565  A
C24          H27   1.082       .  S
C25          C26   1.381       .  A
C25          H28   1.083       .  S
C26         C187   1.485       .  S
N29          C33   1.368       .  A
N29          C30   1.368       .  A
N29          N36   1.426       .  S
C30          C31   1.381       .  A
C30         C178   1.481       .  S
C31          C32   1.365       .  A
C31          H34   1.083       .  S
C32          C33   1.380       .  A
C32          H35   1.082       .  S
C33         C163   1.492       .  S
N36          C40   1.369       .  A
N36          C37   1.368       .  A
C37          C38   1.381       .  A
C37         C151   1.495       .  S
C38          C39   1.364       .  A
C38          H41   1.082       .  S
C39          C40   1.381       .  A
C39          H42   1.083       .  S
C40         C139   1.481       .  S
N43          C47   1.345       .  A
N43          N44   1.322       .  A
N43         Cu51   2.090       .  S
N44          C45   1.348       .  A
N44         Cu50   2.091       .  S
C45          C46   1.394       .  A
C45          H48   1.080       .  S
C46          C47   1.393       .  A
C46         C190   1.504       .  S
C47          H49   1.081       .  S
Cu50         N53   2.090       .  S
Cu51         N61   2.089       .  S
Cu52         N54   2.075       .  S
Cu52         N60   2.076       .  S
N53          C57   1.346       .  A
N53          N54   1.320       .  A
N54          C55   1.346       .  A
C55          C56   1.391       .  A
C55          H58   1.081       .  S
C56          C57   1.394       .  A
C56         C175   1.501       .  S
C57          H59   1.079       .  S
N60          C64   1.341       .  A
N60          N61   1.322       .  A
N61          C62   1.352       .  A
C62          C63   1.391       .  A
C62          H65   1.081       .  S
C63          C64   1.386       .  A
C63         C262   1.492       .  S
C64          H66   1.082       .  S
N67          C71   1.346       .  A
N67          N68   1.324       .  A
N67         Cu75   2.099       .  S
N68          C69   1.352       .  A
N68         Cu74   2.095       .  S
C69          C70   1.390       .  A
C69          H72   1.082       .  S
C70          C71   1.389       .  A
C70         C154   1.497       .  S
C71          H73   1.082       .  S
Cu74         N77   2.095       .  S
Cu75         N85   2.098       .  S
Cu76         N78   2.076       .  S
Cu76         N84   2.077       .  S
N77          C81   1.345       .  A
N77          N78   1.322       .  A
N78          C79   1.351       .  A
C79          C80   1.385       .  A
C79          H82   1.082       .  S
C80          C81   1.388       .  A
C80         C247   1.488       .  S
C81          H83   1.082       .  S
N84          C88   1.343       .  A
N84          N85   1.323       .  A
N85          C86   1.352       .  A
C86          C87   1.390       .  A
C86          H89   1.082       .  S
C87          C88   1.384       .  A
C87         C199   1.490       .  S
C88          H90   1.082       .  S
N91          C95   1.346       .  A
N91          N92   1.322       .  A
N91         Cu99   2.090       .  S
N92          C93   1.348       .  A
N92         Cu98   2.094       .  S
C93          C94   1.394       .  A
C93          H96   1.078       .  S
C94          C95   1.393       .  A
C94         C142   1.505       .  S
C95          H97   1.081       .  S
Cu98        N101   2.094       .  S
Cu99        N109   2.089       .  S
Cu100       N102   2.080       .  S
Cu100       N108   2.081       .  S
N101        C105   1.348       .  A
N101        N102   1.321       .  A
N102        C103   1.347       .  A
C103        C104   1.390       .  A
C103        H106   1.081       .  S
C104        C105   1.394       .  A
C104        C274   1.500       .  S
C105        H107   1.081       .  S
N108        C112   1.343       .  A
N108        N109   1.322       .  A
N109        C110   1.350       .  A
C110        C111   1.388       .  A
C110        H113   1.082       .  S
C111        C112   1.387       .  A
C111        C214   1.491       .  S
C112        H114   1.081       .  S
N115        C119   1.343       .  A
N115        N116   1.317       .  A
N115       Cu123   2.072       .  S
N116        C117   1.346       .  A
N116       Cu122   2.081       .  S
C117        C118   1.398       .  A
C117        H120   1.077       .  S
C118        C119   1.395       .  A
C118        C226   1.509       .  S
C119        H121   1.080       .  S
Cu122       N125   2.082       .  S
Cu123       N133   2.073       .  S
Cu124       N126   2.095       .  S
Cu124       N132   2.096       .  S
N125        C129   1.343       .  A
N125        N126   1.324       .  A
N126        C127   1.352       .  A
C127        C128   1.388       .  A
C127        H130   1.082       .  S
C128        C129   1.384       .  A
C128        C166   1.487       .  S
C129        H131   1.082       .  S
N132        C136   1.347       .  A
N132        N133   1.323       .  A
N133        C134   1.346       .  A
C134        C135   1.385       .  A
C134        H137   1.081       .  S
C135        C136   1.390       .  A
C135        C238   1.491       .  S
C136        H138   1.082       .  S
C139        C140   1.402       .  A
C139        C144   1.410       .  A
C140        C141   1.406   1_655  A
C140        H145   1.084       .  S
C141        C142   1.422       .  A
C141        C148   1.442       .  S
C142        C143   1.410       .  A
C143        C144   1.403   1_455  A
C143        H146   1.083       .  S
C144        C147   1.445       .  S
C147        N149   1.157       .  T
C148        N150   1.158       .  T
C151        C152   1.405       .  A
C151        C156   1.414       .  A
C152        C153   1.411       .  A
C152        H157   1.085       .  S
C153        C154   1.419       .  A
C153        C160   1.442       .  S
C154        C155   1.403       .  A
C155        C156   1.399       .  A
C155        H158   1.084       .  S
C156        C159   1.445       .  S
C159        N161   1.157       .  T
C160        N162   1.157       .  T
C163        C164   1.405       .  A
C163        C168   1.413       .  A
C164        C165   1.398       .  A
C164        H169   1.085       .  S
C165        C166   1.411       .  A
C165        C172   1.444       .  S
C166        C167   1.406       .  A
C167        C168   1.410       .  A
C167        H170   1.084       .  S
C168        C171   1.442       .  S
C171        N173   1.157       .  T
C172        N174   1.157       .  T
C175        C176   1.410       .  A
C175        C180   1.418       .  A
C176        C177   1.403   1_455  A
C176        H181   1.083       .  S
C177        C178   1.410       .  A
C177        C184   1.445       .  S
C178        C179   1.402       .  A
C179        C180   1.403   1_655  A
C179        H182   1.085       .  S
C180        C183   1.442       .  S
C183        N185   1.157       .  T
C184        N186   1.157       .  T
C187        C188   1.403       .  A
C187        C192   1.411       .  A
C188        C189   1.404       .  A
C188        H193   1.085       .  S
C189        C190   1.418       .  A
C189        C196   1.442       .  S
C190        C191   1.409       .  A
C191        C192   1.405       .  A
C191        H194   1.083       .  S
C192        C195   1.442       .  S
C195        N197   1.157       .  T
C196        N198   1.157       .  T
C199        C200   1.405       .  A
C199        C204   1.412       .  A
C200        C201   1.409       .  A
C200        H205   1.085       .  S
C201        C202   1.413       .  A
C201        C208   1.438       .  S
C202        C203   1.407       .  A
C203        C204   1.399       .  A
C203        H206   1.085       .  S
C204        C207   1.444       .  S
C207        N209   1.157       .  T
C208        N210   1.156       .  T
C211        C212   1.405       .  A
C211        C216   1.412       .  A
C212        C213   1.398       .  A
C212        H217   1.085       .  S
C213        C214   1.412       .  A
C213        C220   1.444       .  S
C214        C215   1.407       .  A
C215        C216   1.409       .  A
C215        H218   1.084       .  S
C216        C219   1.439       .  S
C219        N221   1.156       .  T
C220        N222   1.157       .  T
C223        C224   1.399       .  A
C223        C228   1.409       .  A
C224        C225   1.405       .  A
C224        H229   1.082       .  S
C225        C226   1.423       .  A
C225        C232   1.441       .  S
C226        C227   1.412       .  A
C227        C228   1.399       .  A
C227        H230   1.081       .  S
C228        C231   1.445       .  S
C231        N233   1.157       .  T
C232        N234   1.158       .  T
C235        C236   1.403       .  A
C235        C240   1.412       .  A
C236        C237   1.404       .  A
C236        H241   1.085       .  S
C237        C238   1.417       .  A
C237        C244   1.444       .  S
C238        C239   1.405       .  A
C239        C240   1.400       .  A
C239        H242   1.084       .  S
C240        C243   1.444       .  S
C243        N245   1.157       .  T
C244        N246   1.158       .  T
C247        C248   1.398       .  A
C247        C252   1.416       .  A
C248        C249   1.394       .  A
C248        H253   1.085       .  S
C249        C250   1.417       .  A
C249        C256   1.445       .  S
C250        C251   1.407       .  A
C251        C252   1.413       .  A
C251        H254   1.084       .  S
C252        C255   1.443       .  S
C255        N257   1.157       .  T
C256        N258   1.157       .  T
C259        C260   1.404       .  A
C259        C264   1.412       .  A
C260        C261   1.410       .  A
C260        H265   1.085       .  S
C261        C262   1.417       .  A
C261        C268   1.442       .  S
C262        C263   1.403       .  A
C263        C264   1.395       .  A
C263        H266   1.085       .  S
C264        C267   1.445       .  S
C267        N269   1.157       .  T
C268        N270   1.157       .  T
C271        C272   1.404       .  A
C271        C276   1.410       .  A
C272        C273   1.403       .  A
C272        H277   1.085       .  S
C273        C274   1.416       .  A
C273        C280   1.443       .  S
C274        C275   1.410       .  A
C275        C276   1.405       .  A
C275        H278   1.083       .  S
C276        C279   1.444       .  S
C279        N281   1.157       .  T
C280        N282   1.157       .  T
