geometry optimzed in LAMMPS
_audit_creation_date              2020-11-30 
_audit_creation_method            'lammps2cif' 
_symmetry_space_group_name_H-M    'P1' 
_symmetry_Int_Tables_number       1 
_symmetry_cell_setting            triclinic 
loop_ 
_symmetry_equiv_pos_as_xyz 
  x,y,z 
_cell_length_a                    73.55220687 
_cell_length_b                    73.5510638329826 
_cell_length_c                    28.479364170835304 
_cell_angle_alpha                 90.03557390536818 
_cell_angle_beta                  89.97513476568659 
_cell_angle_gamma                 90.0027216776473 
loop_ 
_atom_site_label 
_atom_site_type_symbol 
_atom_site_fract_x 
_atom_site_fract_y 
_atom_site_fract_z 
_atom_site_charge 
N1          N  0.24558243  0.37392636  0.47749801    -0.25800
N2          N  0.24555167  0.37392185  0.52395295    -0.33700
C3          C  0.23523702  0.38780600  0.53936162     0.02500
C4          C  0.22850962  0.39687731  0.50071618     0.08500
C5          C  0.23528849  0.38781252  0.46207769    -0.04600
H6          H  0.23296904  0.39111831  0.57592082     0.09200
H7          H  0.23306855  0.39112969  0.42551720     0.10400
Cu8        Cu  0.25983942  0.35530708  0.56424059     0.44200
Cu9        Cu  0.25991435  0.35531498  0.43723778     0.42000
Cu10       Cu  0.28632880  0.32174796  0.50079301     0.43900
N11         N  0.27559225  0.33557527  0.59656065    -0.33200
N12         N  0.28527055  0.32333540  0.57340835    -0.27500
C13         C  0.29409241  0.31274481  0.60443356    -0.03600
C14         C  0.28970324  0.31864863  0.64899012     0.08600
C15         C  0.27799372  0.33310308  0.64294637     0.02400
H16         H  0.30311036  0.30168683  0.59516480     0.10100
H17         H  0.27178321  0.34130871  0.67011590     0.09200
N18         N  0.28529889  0.32329244  0.42817579    -0.34700
N19         N  0.27565446  0.33553630  0.40500281    -0.26800
C20         C  0.27805989  0.33302305  0.35862424    -0.02100
C21         C  0.28973476  0.31853759  0.35260231     0.06500
C22         C  0.29410258  0.31265706  0.39716431     0.04600
H23         H  0.27187083  0.34121926  0.33144279     0.09700
H24         H  0.30309045  0.30158306  0.40644577     0.08600
N25         N  0.37720169  0.24229645  0.02377038    -0.25800
N26         N  0.37717001  0.24227102  0.97731557    -0.33700
C27         C  0.39104268  0.23195639  0.96184349     0.02500
C28         C  0.40013643  0.22522295  0.00044602     0.08500
C29         C  0.39109611  0.23199845  0.03912717    -0.04600
H30         H  0.39433210  0.22969255  0.92526921     0.09200
H31         H  0.39443496  0.22977265  0.07567295     0.10400
Cu32       Cu  0.35853940  0.25656730  0.93710582     0.44200
Cu33       Cu  0.35860905  0.25662445  0.06410509     0.42000
Cu34       Cu  0.32501835  0.28305843  0.00065969     0.43900
N35         N  0.33880824  0.27233711  0.90484943    -0.33200
N36         N  0.32658146  0.28201780  0.92803896    -0.27500
C37         C  0.31598704  0.29085243  0.89704577    -0.03600
C38         C  0.32187526  0.28646877  0.85247211     0.08600
C39         C  0.33632415  0.27474950  0.85847255     0.02400
H40         H  0.30493698  0.29987489  0.90634751     0.10100
H41         H  0.34451810  0.26853954  0.83127969     0.09200
N42         N  0.32658668  0.28200705  0.07327197    -0.34700
N43         N  0.33883760  0.27235650  0.09640501    -0.26800
C44         C  0.33633705  0.27474944  0.14279309    -0.02100
C45         C  0.32185304  0.28642259  0.14886217     0.06500
C46         C  0.31596004  0.29080213  0.10431861     0.04600
H47         H  0.34454079  0.26855322  0.16994918     0.09700
H48         H  0.30488324  0.29979233  0.09507323     0.08600
N49         N  0.15691217  0.49349452  0.50046381    -0.25800
N50         N  0.17247183  0.50252531  0.50052823    -0.33700
C51         C  0.18631685  0.49057946  0.50058755     0.02500
C52         C  0.17907107  0.47328914  0.50056091     0.08500
C53         C  0.16044725  0.47553976  0.50048230    -0.04600
H54         H  0.20056604  0.49423891  0.50065842     0.09200
H55         H  0.15022122  0.46496395  0.50045270     0.10400
Cu56       Cu  0.17427263  0.53063770  0.50058979     0.44200
Cu57       Cu  0.13161013  0.50599030  0.50039890     0.42000
Cu58       Cu  0.13162349  0.55530807  0.50078759     0.43900
N59         N  0.17248809  0.55875095  0.50074620    -0.33200
N60         N  0.15693417  0.56779026  0.50083181    -0.27500
C61         C  0.16048110  0.58574314  0.50092370    -0.03600
C62         C  0.17910660  0.58798342  0.50089339     0.08600
C63         C  0.18634100  0.57068904  0.50078141     0.02400
H64         H  0.15026195  0.59632468  0.50100090     0.10100
H65         H  0.20058756  0.56702163  0.50072800     0.09200
N66         N  0.10814062  0.53965057  0.50061707    -0.34700
N67         N  0.10813609  0.52165791  0.50045639    -0.26800
C68         C  0.09083503  0.51569807  0.50038136    -0.02100
C69         C  0.07951846  0.53065987  0.50050247     0.06500
C70         C  0.09084235  0.54561733  0.50065051     0.04600
H71         H  0.08683239  0.50154172  0.50026472     0.09700
H72         H  0.08684662  0.55977503  0.50078326     0.08600
N73         N  0.24566059  0.68732139  0.47799473    -0.25800
N74         N  0.24566635  0.68731102  0.52444962    -0.33700
C75         C  0.23536071  0.67342357  0.53984128     0.02500
C76         C  0.22860142  0.66436464  0.50118336     0.08500
C77         C  0.23535201  0.67344062  0.46255705    -0.04600
H78         H  0.23311859  0.67010230  0.57639487     0.09200
H79         H  0.23310170  0.67013535  0.42599138     0.10400
Cu80       Cu  0.25998365  0.70591618  0.56474967     0.44200
Cu81       Cu  0.25996571  0.70594406  0.43774883     0.42000
Cu82       Cu  0.28644344  0.73948336  0.50129776     0.43900
N83         N  0.27573043  0.72566925  0.59705663    -0.33200
N84         N  0.28539470  0.73791233  0.57391176    -0.27500
C85         C  0.29419981  0.74852873  0.60494574    -0.03600
C86         C  0.28981336  0.74263788  0.64949661     0.08600
C87         C  0.27812445  0.72816483  0.64344250     0.02400
H88         H  0.30320010  0.75959894  0.59568695     0.10100
H89         H  0.27191740  0.71996599  0.67060692     0.09200
N90         N  0.28539416  0.73792859  0.42867876    -0.34700
N91         N  0.27572155  0.72569681  0.40549968    -0.26800
C92         C  0.27812711  0.72819189  0.35912054    -0.02100
C93         C  0.28983284  0.74265250  0.35310651     0.06500
C94         C  0.29421675  0.74853715  0.39767393     0.04600
H95         H  0.27192179  0.71999694  0.33193411     0.09700
H96         H  0.30323150  0.75959361  0.40696346     0.08600
N97         N  0.37728481  0.81897590  0.97806430    -0.25800
N98         N  0.37730038  0.81893799  0.02451902    -0.33700
C99         C  0.39118971  0.82923012  0.03996431     0.02500
C100        C  0.40024619  0.83601553  0.00134454     0.08500
C101        C  0.39116622  0.82929403  0.96268020    -0.04600
H102        H  0.39451391  0.83144530  0.07652990     0.09200
H103        H  0.39446944  0.83157004  0.92612686     0.10400
Cu104      Cu  0.35870190  0.80460253  0.06476515     0.44200
Cu105      Cu  0.35865151  0.80469607  0.93776379     0.42000
Cu106      Cu  0.32510288  0.77820785  0.00129688     0.43900
N107        N  0.33895107  0.78886207  0.09706596    -0.33200
N108        N  0.32669051  0.77922007  0.07391286    -0.27500
C109        C  0.31607776  0.77041106  0.10493870    -0.03600
C110        C  0.32199067  0.77477241  0.14949251     0.08600
C111        C  0.33647201  0.78645037  0.14344828     0.02400
H112        H  0.30499601  0.76142468  0.09567246     0.10100
H113        H  0.34468754  0.79263759  0.17061538     0.09200
N114        N  0.32665250  0.77927794  0.92868020    -0.34700
N115        N  0.33888413  0.78895054  0.90550933    -0.26800
C116        C  0.33638241  0.78654948  0.85912795    -0.02100
C117        C  0.32191827  0.77484769  0.85310450     0.06500
C118        C  0.31603870  0.77046090  0.89766815     0.04600
H119        H  0.34457731  0.79275302  0.83194509     0.09700
H120        H  0.30498339  0.76144498  0.90695099     0.08600
N121        N  0.49682798  0.90766852  0.00104546    -0.25800
N122        N  0.50586529  0.89211351  0.00115884    -0.33700
C123        C  0.49392631  0.87826177  0.00133501     0.02500
C124        C  0.47663319  0.88549801  0.00133676     0.08500
C125        C  0.47887511  0.90412339  0.00115013    -0.04600
H126        H  0.49759240  0.86401457  0.00144517     0.09200
H127        H  0.46829454  0.91434370  0.00107509     0.10400
Cu128      Cu  0.53397656  0.89032712  0.00111909     0.44200
Cu129      Cu  0.50931504  0.93297664  0.00070307     0.42000
Cu130      Cu  0.55863474  0.93298445  0.00087860     0.43900
N131        N  0.56208732  0.89212149  0.00135706    -0.33200
N132        N  0.57112312  0.90767839  0.00130903    -0.27500
C133        C  0.58907617  0.90413685  0.00152866    -0.03600
C134        C  0.59131961  0.88551188  0.00172116     0.08600
C135        C  0.57402741  0.87827216  0.00160434     0.02400
H136        H  0.59965576  0.91435919  0.00152091     0.10100
H137        H  0.57036275  0.86402431  0.00167849     0.09200
N138        N  0.54296904  0.95645980  0.00036810    -0.34700
N139        N  0.52497653  0.95645671  0.00030605    -0.26800
C140        C  0.51901145  0.97375532  0.00004277    -0.02100
C141        C  0.53396939  0.98507832  0.99993356     0.06500
C142        C  0.54893016  0.97376059  0.00014526     0.04600
H143        H  0.50485398  0.97775220  0.00000259     0.09700
H144        H  0.56308645  0.97776242  0.00020209     0.08600
N145        N  0.91097472  0.49349416  0.49962401    -0.25800
N146        N  0.89541608  0.50252503  0.49979803    -0.33700
C147        C  0.88156950  0.49057963  0.49967136     0.02500
C148        C  0.88881322  0.47328927  0.49940567     0.08500
C149        C  0.90743747  0.47553959  0.49938175    -0.04600
H150        H  0.86732095  0.49423930  0.49978931     0.09200
H151        H  0.91766224  0.46496368  0.49923165     0.10400
Cu152      Cu  0.89361899  0.53063690  0.50023520     0.44200
Cu153      Cu  0.93627821  0.50599027  0.49981806     0.42000
Cu154      Cu  0.93627079  0.55530733  0.50062935     0.43900
N155        N  0.89540691  0.55874972  0.50053558    -0.33200
N156        N  0.91096171  0.56778888  0.50066280    -0.27500
C157        C  0.90741671  0.58574164  0.50081610    -0.03600
C158        C  0.88879164  0.58798196  0.50078319     0.08600
C159        C  0.88155539  0.57068791  0.50060712     0.02400
H160        H  0.91763694  0.59632310  0.50095014     0.10100
H161        H  0.86730827  0.56702072  0.50053918     0.09200
N162        N  0.95975144  0.53964969  0.50053266    -0.34700
N163        N  0.95975413  0.52165729  0.50022184    -0.26800
C164        C  0.97705465  0.51569724  0.50021249    -0.02100
C165        C  0.98837256  0.53065878  0.50053375     0.06500
C166        C  0.97705011  0.54561607  0.50073049     0.04600
H167        H  0.98105594  0.50154135  0.49997226     0.09700
H168        H  0.98104719  0.55977387  0.50097643     0.08600
N169        N  0.82226692  0.68730637  0.52515068    -0.25800
N170        N  0.82222988  0.68732374  0.47869589    -0.33700
C171        C  0.83252065  0.67344466  0.46315691     0.02500
C172        C  0.83930465  0.66436123  0.50171384     0.08500
C173        C  0.83258349  0.67341440  0.54044056    -0.04600
H174        H  0.83473734  0.67014624  0.42656840     0.09200
H175        H  0.83485987  0.67008704  0.57697186     0.10400
Cu176      Cu  0.80789908  0.70595259  0.43856749     0.44200
Cu177      Cu  0.80799222  0.70591414  0.56556977     0.42000
Cu178      Cu  0.78151394  0.73951249  0.50221272     0.43900
N179        N  0.79214892  0.72571060  0.40636221    -0.33200
N180        N  0.78250663  0.73795796  0.42958586    -0.27500
C181        C  0.77368260  0.74857469  0.39862222    -0.03600
C182        C  0.77803384  0.74267850  0.35403164     0.08600
C183        C  0.78972238  0.72820259  0.35999408     0.02400
H184        H  0.76469113  0.75964650  0.40795483     0.10100
H185        H  0.79590485  0.71999781  0.33277981     0.09200
N186        N  0.78260332  0.73793010  0.57481868    -0.34700
N187        N  0.79226855  0.72568152  0.59791972    -0.26800
C188        C  0.78988692  0.72817407  0.64431558    -0.02100
C189        C  0.77820605  0.74265010  0.65041985     0.06500
C190        C  0.77381067  0.74854629  0.60589244     0.04600
H191        H  0.79609302  0.71996831  0.67145164     0.09700
H192        H  0.76480857  0.75961701  0.59667536     0.08600
N193        N  0.69065964  0.81896453  0.97891320    -0.25800
N194        N  0.69063433  0.81896098  0.02536806    -0.33700
C195        C  0.67674118  0.82926503  0.04076645     0.02500
C196        C  0.66769508  0.83602122  0.00211478     0.08500
C197        C  0.67678399  0.82927046  0.96348257    -0.04600
H198        H  0.67340821  0.83150979  0.07732243     0.09200
H199        H  0.67349188  0.83151980  0.92691809     0.10400
Cu200      Cu  0.70923058  0.80465400  0.06566748     0.44200
Cu201      Cu  0.70929775  0.80466299  0.93866844     0.42000
Cu202      Cu  0.74284028  0.77822161  0.00226456     0.43900
N203        N  0.72897089  0.78892000  0.09801400    -0.33200
N204        N  0.74123262  0.77926358  0.07487991    -0.27500
C205        C  0.75182923  0.77045664  0.10592194    -0.03600
C206        C  0.74590603  0.77483319  0.15047031     0.08600
C207        C  0.73143428  0.78651920  0.14440256     0.02400
H208        H  0.76290528  0.76145840  0.09667024     0.10100
H209        H  0.72321237  0.79271626  0.17155896     0.09200
N210        N  0.74130940  0.77926324  0.92964538    -0.34700
N211        N  0.72907766  0.78891851  0.90645817    -0.26800
C212        C  0.73159418  0.78650860  0.86008215    -0.02100
C213        C  0.74606877  0.77481913  0.85407819     0.06500
C214        C  0.75193955  0.77044792  0.89864615     0.04600
H215        H  0.72340435  0.79270061  0.83289113     0.09700
H216        H  0.76300106  0.76144649  0.90794014     0.08600
N217        N  0.49674646  0.15361332  0.99983314    -0.25800
N218        N  0.50577494  0.16917446  0.99973228    -0.33700
C219        C  0.49382779  0.18301838  0.99978580     0.02500
C220        C  0.47653872  0.17577065  0.99992380     0.08500
C221        C  0.47879149  0.15714660  0.99995074    -0.04600
H222        H  0.49748553  0.19726803  0.99973981     0.09200
H223        H  0.46821693  0.14691925  0.00006266     0.10400
Cu224      Cu  0.53388596  0.17098078  0.99955998     0.44200
Cu225      Cu  0.50924683  0.12831218  0.99986393     0.42000
Cu226      Cu  0.55856579  0.12833953  0.99963207     0.43900
N227        N  0.56199877  0.16920486  0.99946124    -0.33200
N228        N  0.57104211  0.15365320  0.99947985    -0.27500
C229        C  0.58899374  0.15720504  0.99941877    -0.03600
C230        C  0.59122877  0.17583144  0.99936125     0.08600
C231        C  0.57393276  0.18306123  0.99938999     0.02400
H232        H  0.59957792  0.14698872  0.99942459     0.10100
H233        H  0.57026143  0.19730707  0.99936689     0.09200
N234        N  0.54291475  0.10485233  0.99987792    -0.34700
N235        N  0.52492224  0.10484209  0.99996348    -0.26800
C236        C  0.51896838  0.08753865  0.00007669    -0.02100
C237        C  0.53393380  0.07622668  0.00006074     0.06500
C238        C  0.54888708  0.08755583  0.99993395     0.04600
H239        H  0.50481351  0.08353117  0.00012963     0.09700
H240        H  0.56304613  0.08356471  0.99985183     0.08600
N241        N  0.69055077  0.24241254  0.02223187    -0.25800
N242        N  0.69057379  0.24236051  0.97577705    -0.33700
C243        C  0.67669327  0.23204160  0.96039225     0.02500
C244        C  0.66760394  0.22533405  0.99905474     0.08500
C245        C  0.67665491  0.23212865  0.03767633    -0.04600
H246        H  0.67339794  0.22975471  0.92383840     0.09200
H247        H  0.67332446  0.22992230  0.07424216     0.10400
Cu248      Cu  0.70921094  0.25662382  0.93546669     0.44200
Cu249      Cu  0.70915980  0.25674717  0.06246672     0.42000
Cu250      Cu  0.74276967  0.28311505  0.99893496     0.43900
N251        N  0.72896348  0.27236877  0.90317136    -0.33200
N252        N  0.74119924  0.28204463  0.92632115    -0.27500
C253        C  0.75180223  0.29086282  0.89529236    -0.03600
C254        C  0.74591056  0.28647354  0.85074040     0.08600
C255        C  0.73145070  0.27476856  0.85678637     0.02400
H256        H  0.76285888  0.29988036  0.90455633     0.10100
H257        H  0.72324992  0.26856172  0.82961969     0.09200
N258        N  0.74120472  0.28209899  0.07155541    -0.34700
N259        N  0.72894159  0.27246816  0.09472830    -0.26800
C260        C  0.73144111  0.27487269  0.14110819    -0.02100
C261        C  0.74593768  0.28653382  0.14713224     0.06500
C262        C  0.75183872  0.29089325  0.10256668     0.04600
H263        H  0.72322902  0.26869158  0.16829014     0.09700
H264        H  0.76292710  0.29986840  0.09328323     0.08600
N265        N  0.82228245  0.37394066  0.47579390    -0.25800
N266        N  0.82229039  0.37393541  0.52224892    -0.33700
C267        C  0.83260521  0.38781339  0.53767429     0.02500
C268        C  0.83935788  0.39688275  0.49904069     0.08500
C269        C  0.83259310  0.38782263  0.46039066    -0.04600
H270        H  0.83485517  0.39112366  0.57423729     0.09200
H271        H  0.83483224  0.39114173  0.42383380     0.10400
Cu272      Cu  0.80797338  0.35533019  0.56251713     0.44200
Cu273      Cu  0.80795031  0.35533867  0.43551400     0.42000
Cu274      Cu  0.78147939  0.32179254  0.49902092     0.43900
N275        N  0.79220434  0.33559733  0.59480068    -0.33200
N276        N  0.78252627  0.32336557  0.57163713    -0.27500
C277        C  0.77369745  0.31276836  0.60265452    -0.03600
C278        C  0.77808234  0.31866012  0.64721393     0.08600
C279        C  0.78979594  0.33311357  0.64118353     0.02400
H280        H  0.76467901  0.30171307  0.59337860     0.10100
H281        H  0.79600624  0.34130971  0.66836008     0.09200
N282        N  0.78252509  0.32334845  0.42640372    -0.34700
N283        N  0.79219210  0.33558461  0.40324166    -0.26800
C284        C  0.78979099  0.33308475  0.35686007    -0.02100
C285        C  0.77809512  0.31861619  0.35082451     0.06500
C286        C  0.77371120  0.31273223  0.39538428     0.04600
H287        H  0.79599619  0.34127951  0.32968484     0.09700
H288        H  0.76470461  0.30166924  0.40465894     0.08600
C289        C  0.75312074  0.29313608  0.19082611    -0.17000
C290        C  0.75902665  0.29879310  0.22750212     0.07000
C291        C  0.76580610  0.30555495  0.27045279     0.08900
C292        C  0.77147809  0.31144764  0.30712817    -0.17900
C293        C  0.75306426  0.29310340  0.80705092    -0.17000
C294        C  0.75896811  0.29879604  0.77041654     0.07000
C295        C  0.76576274  0.30559651  0.72753252     0.08900
C296        C  0.77145181  0.31150420  0.69089909    -0.17900
C297        C  0.60806698  0.18574010  0.99928998    -0.17000
C298        C  0.62199105  0.19438914  0.99922383     0.07000
C299        C  0.63807254  0.20487261  0.99914589     0.08900
C300        C  0.65163043  0.21408493  0.99909214    -0.17900
C301        C  0.75304817  0.76821731  0.19417741    -0.17000
C302        C  0.75893887  0.76253987  0.23083238     0.07000
C303        C  0.76571842  0.75575375  0.27373890     0.08900
C304        C  0.77139991  0.74984881  0.31037420    -0.17900
C305        C  0.75325084  0.76819118  0.81040195    -0.17000
C306        C  0.75915840  0.76250888  0.77374599     0.07000
C307        C  0.76593886  0.75572083  0.73081728     0.08900
C308        C  0.77160648  0.74981570  0.69414337    -0.17900
C309        C  0.87888962  0.60482300  0.50095372    -0.17000
C310        C  0.87024507  0.61874893  0.50113085     0.07000
C311        C  0.85976510  0.63483146  0.50136498     0.08900
C312        C  0.85055406  0.64838919  0.50155243    -0.17900
C313        C  0.85060558  0.41285761  0.49906321    -0.17000
C314        C  0.85981108  0.42642039  0.49911029     0.07000
C315        C  0.87028210  0.44251035  0.49918852     0.08900
C316        C  0.87891883  0.45644232  0.49927376    -0.17900
C317        C  0.53394436  0.05666704  0.00003630    -0.17000
C318        C  0.53395281  0.04026191  0.99997656     0.07000
C319        C  0.53396123  0.02104303  0.99989879     0.08900
C320        C  0.53396634  0.00463790  0.99987253    -0.17900
C321        C  0.65172470  0.84727265  0.00209619    -0.17000
C322        C  0.63816825  0.85648543  0.00206675     0.07000
C323        C  0.62208699  0.86696712  0.00200005     0.08900
C324        C  0.60816154  0.87561213  0.00189992    -0.17900
C325        C  0.45979160  0.87559551  0.00142701    -0.17000
C326        C  0.44586484  0.86695100  0.00145342     0.07000
C327        C  0.42978037  0.85647239  0.00143080     0.08900
C328        C  0.41622050  0.84726319  0.00138726    -0.17900
C329        C  0.31482824  0.76815721  0.19318817    -0.17000
C330        C  0.30892763  0.76248574  0.22984850     0.07000
C331        C  0.30214320  0.75570957  0.27276989     0.08900
C332        C  0.29646159  0.74981309  0.30942368    -0.17900
C333        C  0.29641658  0.74981353  0.69319741    -0.17000
C334        C  0.30208273  0.75572762  0.72985484     0.07000
C335        C  0.30885754  0.76252660  0.77276965     0.08900
C336        C  0.31475549  0.76821646  0.80941933    -0.16700
C337        C  0.00793160  0.53066233  0.50056888    -0.17000
C338        C  0.02433632  0.53066397  0.50056721     0.07000
C339        C  0.04355466  0.53066439  0.50054285     0.08900
C340        C  0.05995939  0.53066324  0.50051923    -0.17900
C341        C  0.18901061  0.60482473  0.50096326    -0.17000
C342        C  0.19765664  0.61875092  0.50102561     0.07000
C343        C  0.20813815  0.63483402  0.50109885     0.08900
C344        C  0.21735034  0.64839222  0.50114942    -0.17900
C345        C  0.45969131  0.18566214  0.00004760    -0.17000
C346        C  0.44576043  0.19429894  0.00015398     0.07000
C347        C  0.42967248  0.20477106  0.00027593     0.08900
C348        C  0.41611106  0.21397695  0.00036797    -0.17900
C349        C  0.18896316  0.45644201  0.50062187    -0.17000
C350        C  0.19759762  0.44250961  0.50066381     0.07000
C351        C  0.20806549  0.42641885  0.50069636     0.08900
C352        C  0.21726760  0.41285481  0.50071092    -0.17900
C353        C  0.29634551  0.31135095  0.30891189    -0.17000
C354        C  0.30200948  0.30544855  0.27223042     0.07000
C355        C  0.30877869  0.29868075  0.22926698     0.08900
C356        C  0.31467734  0.29302221  0.19257590    -0.17900
C357        C  0.29633081  0.31150400  0.69268068    -0.17000
C358        C  0.30202072  0.30560158  0.72930897     0.07000
C359        C  0.30881764  0.29880272  0.77218187     0.08900
C360        C  0.31472231  0.29310753  0.80880221    -0.17900
loop_ 
_geom_bond_atom_site_label_1 
_geom_bond_atom_site_label_2 
_geom_bond_distance 
_geom_bond_site_symmetry_2 
_ccdc_geom_bond_type 
N1            N2   1.323       .  A
N1            C5   1.345       .  A
N1           Cu9   2.073       .  S
N2            C3   1.345       .  A
N2           Cu8   2.073       .  S
C3            C4   1.379       .  A
C3            H6   1.082       .  S
C4            C5   1.379       .  A
C4          C352   1.437       .  S
C5            H7   1.082       .  S
Cu8          N11   2.073       .  S
Cu9          N19   2.073       .  S
Cu10         N12   2.073       .  S
Cu10         N18   2.073       .  S
N11          N12   1.323       .  A
N11          C15   1.345       .  A
N12          C13   1.345       .  A
C13          C14   1.379       .  A
C13          H16   1.082       .  S
C14          C15   1.379       .  A
C14         C357   1.436       .  S
C15          H17   1.082       .  S
N18          N19   1.323       .  A
N18          C22   1.345       .  A
N19          C20   1.345       .  A
C20          C21   1.379       .  A
C20          H23   1.082       .  S
C21          C22   1.379       .  A
C21         C353   1.436       .  S
C22          H24   1.082       .  S
N25          N26   1.323   1_554  A
N25          C29   1.345       .  A
N25         Cu33   2.073       .  S
N26          C27   1.345       .  A
N26         Cu32   2.073       .  S
C27          C28   1.379   1_556  A
C27          H30   1.082       .  S
C28          C29   1.379       .  A
C28         C348   1.437       .  S
C29          H31   1.082       .  S
Cu32         N35   2.073       .  S
Cu33         N43   2.073       .  S
Cu34         N36   2.073   1_554  S
Cu34         N42   2.073       .  S
N35          N36   1.323       .  A
N35          C39   1.345       .  A
N36          C37   1.345       .  A
C37          C38   1.379       .  A
C37          H40   1.082       .  S
C38          C39   1.379       .  A
C38         C360   1.436       .  S
C39          H41   1.082       .  S
N42          N43   1.323       .  A
N42          C46   1.345       .  A
N43          C44   1.345       .  A
C44          C45   1.379       .  A
C44          H47   1.082       .  S
C45          C46   1.379       .  A
C45         C356   1.436       .  S
C46          H48   1.082       .  S
N49          N50   1.323       .  A
N49          C53   1.346       .  A
N49         Cu57   2.076       .  S
N50          C51   1.345       .  A
N50         Cu56   2.072       .  S
C51          C52   1.379       .  A
C51          H54   1.082       .  S
C52          C53   1.380       .  A
C52         C349   1.437       .  S
C53          H55   1.082       .  S
Cu56         N59   2.072       .  S
Cu57         N67   2.076       .  S
Cu58         N60   2.076       .  S
Cu58         N66   2.076       .  S
N59          N60   1.323       .  A
N59          C63   1.345       .  A
N60          C61   1.346       .  A
C61          C62   1.380       .  A
C61          H64   1.082       .  S
C62          C63   1.379       .  A
C62         C341   1.437       .  S
C63          H65   1.082       .  S
N66          N67   1.323       .  A
N66          C70   1.346       .  A
N67          C68   1.346       .  A
C68          C69   1.380       .  A
C68          H71   1.082       .  S
C69          C70   1.380       .  A
C69         C340   1.439       .  S
C70          H72   1.082       .  S
N73          N74   1.323       .  A
N73          C77   1.345       .  A
N73         Cu81   2.073       .  S
N74          C75   1.345       .  A
N74         Cu80   2.073       .  S
C75          C76   1.379       .  A
C75          H78   1.082       .  S
C76          C77   1.379       .  A
C76         C344   1.437       .  S
C77          H79   1.082       .  S
Cu80         N83   2.073       .  S
Cu81         N91   2.073       .  S
Cu82         N84   2.073       .  S
Cu82         N90   2.073       .  S
N83          N84   1.323       .  A
N83          C87   1.345       .  A
N84          C85   1.345       .  A
C85          C86   1.379       .  A
C85          H88   1.082       .  S
C86          C87   1.379       .  A
C86         C333   1.436       .  S
C87          H89   1.082       .  S
N90          N91   1.323       .  A
N90          C94   1.345       .  A
N91          C92   1.345       .  A
C92          C93   1.379       .  A
C92          H95   1.082       .  S
C93          C94   1.379       .  A
C93         C332   1.436       .  S
C94          H96   1.082       .  S
N97          N98   1.323   1_556  A
N97         C101   1.345       .  A
N97        Cu105   2.073       .  S
N98          C99   1.345       .  A
N98        Cu104   2.073       .  S
C99         C100   1.379       .  A
C99         H102   1.082       .  S
C100        C101   1.379   1_554  A
C100        C328   1.437       .  S
C101        H103   1.082       .  S
Cu104       N107   2.073       .  S
Cu105       N115   2.073       .  S
Cu106       N108   2.073       .  S
Cu106       N114   2.073   1_554  S
N107        N108   1.323       .  A
N107        C111   1.345       .  A
N108        C109   1.345       .  A
C109        C110   1.379       .  A
C109        H112   1.082       .  S
C110        C111   1.379       .  A
C110        C329   1.436       .  S
C111        H113   1.082       .  S
N114        N115   1.323       .  A
N114        C118   1.345       .  A
N115        C116   1.345       .  A
C116        C117   1.379       .  A
C116        H119   1.082       .  S
C117        C118   1.379       .  A
C117        C336   1.436       .  S
C118        H120   1.082       .  S
N121        N122   1.323       .  A
N121        C125   1.346       .  A
N121       Cu129   2.076       .  S
N122        C123   1.345       .  A
N122       Cu128   2.072       .  S
C123        C124   1.379       .  A
C123        H126   1.082       .  S
C124        C125   1.380       .  A
C124        C325   1.437       .  S
C125        H127   1.082       .  S
Cu128       N131   2.072       .  S
Cu129       N139   2.076       .  S
Cu130       N132   2.076       .  S
Cu130       N138   2.076       .  S
N131        N132   1.323       .  A
N131        C135   1.345       .  A
N132        C133   1.346       .  A
C133        C134   1.380       .  A
C133        H136   1.082       .  S
C134        C135   1.379       .  A
C134        C324   1.437       .  S
C135        H137   1.082       .  S
N138        N139   1.323       .  A
N138        C142   1.346       .  A
N139        C140   1.346       .  A
C140        C141   1.380   1_554  A
C140        H143   1.082       .  S
C141        C142   1.380   1_556  A
C141        C320   1.439   1_565  S
C142        H144   1.082       .  S
N145        N146   1.323       .  A
N145        C149   1.346       .  A
N145       Cu153   2.076       .  S
N146        C147   1.345       .  A
N146       Cu152   2.072       .  S
C147        C148   1.379       .  A
C147        H150   1.082       .  S
C148        C149   1.380       .  A
C148        C316   1.437       .  S
C149        H151   1.082       .  S
Cu152       N155   2.072       .  S
Cu153       N163   2.076       .  S
Cu154       N156   2.076       .  S
Cu154       N162   2.076       .  S
N155        N156   1.323       .  A
N155        C159   1.345       .  A
N156        C157   1.346       .  A
C157        C158   1.380       .  A
C157        H160   1.082       .  S
C158        C159   1.379       .  A
C158        C309   1.437       .  S
C159        H161   1.082       .  S
N162        N163   1.323       .  A
N162        C166   1.346       .  A
N163        C164   1.346       .  A
C164        C165   1.380       .  A
C164        H167   1.082       .  S
C165        C166   1.380       .  A
C165        C337   1.439   1_655  S
C166        H168   1.082       .  S
N169        N170   1.323       .  A
N169        C173   1.345       .  A
N169       Cu177   2.073       .  S
N170        C171   1.345       .  A
N170       Cu176   2.073       .  S
C171        C172   1.379       .  A
C171        H174   1.082       .  S
C172        C173   1.379       .  A
C172        C312   1.437       .  S
C173        H175   1.082       .  S
Cu176       N179   2.073       .  S
Cu177       N187   2.073       .  S
Cu178       N180   2.073       .  S
Cu178       N186   2.073       .  S
N179        N180   1.323       .  A
N179        C183   1.345       .  A
N180        C181   1.345       .  A
C181        C182   1.379       .  A
C181        H184   1.082       .  S
C182        C183   1.379       .  A
C182        C304   1.436       .  S
C183        H185   1.082       .  S
N186        N187   1.323       .  A
N186        C190   1.345       .  A
N187        C188   1.345       .  A
C188        C189   1.379       .  A
C188        H191   1.082       .  S
C189        C190   1.379       .  A
C189        C308   1.436       .  S
C190        H192   1.082       .  S
N193        N194   1.323   1_556  A
N193        C197   1.345       .  A
N193       Cu201   2.073       .  S
N194        C195   1.345       .  A
N194       Cu200   2.073       .  S
C195        C196   1.379       .  A
C195        H198   1.082       .  S
C196        C197   1.379   1_554  A
C196        C321   1.437       .  S
C197        H199   1.082       .  S
Cu200       N203   2.073       .  S
Cu201       N211   2.073       .  S
Cu202       N204   2.073       .  S
Cu202       N210   2.073   1_554  S
N203        N204   1.323       .  A
N203        C207   1.345       .  A
N204        C205   1.345       .  A
C205        C206   1.379       .  A
C205        H208   1.082       .  S
C206        C207   1.379       .  A
C206        C301   1.436       .  S
C207        H209   1.082       .  S
N210        N211   1.323       .  A
N210        C214   1.345       .  A
N211        C212   1.345       .  A
C212        C213   1.379       .  A
C212        H215   1.082       .  S
C213        C214   1.379       .  A
C213        C305   1.436       .  S
C214        H216   1.082       .  S
N217        N218   1.323       .  A
N217        C221   1.346       .  A
N217       Cu225   2.076       .  S
N218        C219   1.345       .  A
N218       Cu224   2.072       .  S
C219        C220   1.379       .  A
C219        H222   1.082       .  S
C220        C221   1.380       .  A
C220        C345   1.437   1_556  S
C221        H223   1.082   1_556  S
Cu224       N227   2.072       .  S
Cu225       N235   2.076       .  S
Cu226       N228   2.076       .  S
Cu226       N234   2.076       .  S
N227        N228   1.323       .  A
N227        C231   1.345       .  A
N228        C229   1.346       .  A
C229        C230   1.380       .  A
C229        H232   1.082       .  S
C230        C231   1.379       .  A
C230        C297   1.437       .  S
C231        H233   1.082       .  S
N234        N235   1.323       .  A
N234        C238   1.346       .  A
N235        C236   1.346   1_556  A
C236        C237   1.380       .  A
C236        H239   1.082       .  S
C237        C238   1.380   1_554  A
C237        C317   1.439       .  S
C238        H240   1.082       .  S
N241        N242   1.323   1_554  A
N241        C245   1.345       .  A
N241       Cu249   2.073       .  S
N242        C243   1.345       .  A
N242       Cu248   2.073       .  S
C243        C244   1.379       .  A
C243        H246   1.082       .  S
C244        C245   1.379   1_556  A
C244        C300   1.437       .  S
C245        H247   1.082       .  S
Cu248       N251   2.073       .  S
Cu249       N259   2.073       .  S
Cu250       N252   2.073       .  S
Cu250       N258   2.073   1_556  S
N251        N252   1.323       .  A
N251        C255   1.345       .  A
N252        C253   1.345       .  A
C253        C254   1.379       .  A
C253        H256   1.082       .  S
C254        C255   1.379       .  A
C254        C293   1.436       .  S
C255        H257   1.082       .  S
N258        N259   1.323       .  A
N258        C262   1.345       .  A
N259        C260   1.345       .  A
C260        C261   1.379       .  A
C260        H263   1.082       .  S
C261        C262   1.379       .  A
C261        C289   1.436       .  S
C262        H264   1.082       .  S
N265        N266   1.323       .  A
N265        C269   1.345       .  A
N265       Cu273   2.073       .  S
N266        C267   1.345       .  A
N266       Cu272   2.073       .  S
C267        C268   1.379       .  A
C267        H270   1.082       .  S
C268        C269   1.379       .  A
C268        C313   1.437       .  S
C269        H271   1.082       .  S
Cu272       N275   2.073       .  S
Cu273       N283   2.073       .  S
Cu274       N276   2.073       .  S
Cu274       N282   2.073       .  S
N275        N276   1.323       .  A
N275        C279   1.345       .  A
N276        C277   1.345       .  A
C277        C278   1.379       .  A
C277        H280   1.082       .  S
C278        C279   1.379       .  A
C278        C296   1.436       .  S
C279        H281   1.082       .  S
N282        N283   1.323       .  A
N282        C286   1.345       .  A
N283        C284   1.345       .  A
C284        C285   1.379       .  A
C284        H287   1.082       .  S
C285        C286   1.379       .  A
C285        C292   1.436       .  S
C286        H288   1.082       .  S
C289        C290   1.205       .  T
C290        C291   1.411       .  S
C291        C292   1.205       .  T
C293        C294   1.205       .  T
C294        C295   1.411       .  S
C295        C296   1.205       .  T
C297        C298   1.206       .  T
C298        C299   1.412       .  S
C299        C300   1.206       .  T
C301        C302   1.205       .  T
C302        C303   1.411       .  S
C303        C304   1.205       .  T
C305        C306   1.205       .  T
C306        C307   1.411       .  S
C307        C308   1.205       .  T
C309        C310   1.206       .  T
C310        C311   1.412       .  S
C311        C312   1.206       .  T
C313        C314   1.206       .  T
C314        C315   1.412       .  S
C315        C316   1.206       .  T
C317        C318   1.207   1_554  T
C318        C319   1.414       .  S
C319        C320   1.207       .  T
C321        C322   1.206       .  T
C322        C323   1.412       .  S
C323        C324   1.206       .  T
C325        C326   1.206       .  T
C326        C327   1.412       .  S
C327        C328   1.206       .  T
C329        C330   1.205       .  T
C330        C331   1.411       .  S
C331        C332   1.205       .  T
C333        C334   1.205       .  T
C334        C335   1.411       .  S
C335        C336   1.205       .  T
C337        C338   1.207       .  T
C338        C339   1.414       .  S
C339        C340   1.207       .  T
C341        C342   1.206       .  T
C342        C343   1.412       .  S
C343        C344   1.206       .  T
C345        C346   1.206       .  T
C346        C347   1.412       .  S
C347        C348   1.206       .  T
C349        C350   1.206       .  T
C350        C351   1.412       .  S
C351        C352   1.206       .  T
C353        C354   1.205       .  T
C354        C355   1.411       .  S
C355        C356   1.205       .  T
C357        C358   1.205       .  T
C358        C359   1.411       .  S
C359        C360   1.205       .  T
