geometry optimzed in LAMMPS
_audit_creation_date              2020-11-30 
_audit_creation_method            'lammps2cif' 
_symmetry_space_group_name_H-M    'P1' 
_symmetry_Int_Tables_number       1 
_symmetry_cell_setting            triclinic 
loop_ 
_symmetry_equiv_pos_as_xyz 
  x,y,z 
_cell_length_a                    30.95139784 
_cell_length_b                    30.709855081525188 
_cell_length_c                    31.29291146906735 
_cell_angle_alpha                 89.54465073752147 
_cell_angle_beta                  89.55481378083431 
_cell_angle_gamma                 90.5063890068615 
loop_ 
_atom_site_label 
_atom_site_type_symbol 
_atom_site_fract_x 
_atom_site_fract_y 
_atom_site_fract_z 
_atom_site_charge 
N1          N  0.28177235  0.56094004  0.00982288    -0.27000
N2          N  0.30702111  0.59187674  0.99328743    -0.34800
C3          C  0.30157271  0.62886945  0.01496308     0.01400
C4          C  0.27189137  0.62151468  0.04728334     0.07400
C5          C  0.25988556  0.57793369  0.04329988    -0.05700
H6          H  0.31993195  0.65850394  0.00912381     0.08100
H7          H  0.23731914  0.55991097  0.06338394     0.09300
Cu8        Cu  0.35523504  0.58367324  0.94840224     0.44200
Cu9        Cu  0.27957388  0.49720094  0.98514215     0.42000
Cu10       Cu  0.37057133  0.47908952  0.91217091     0.43900
N11         N  0.41407664  0.56453660  0.92425842    -0.34300
N12         N  0.42028782  0.52414615  0.91201316    -0.28600
C13         C  0.46289870  0.51686984  0.90899552    -0.04700
C14         C  0.48489995  0.55471625  0.91995504     0.07500
C15         C  0.45256654  0.58433587  0.92922979     0.01300
H16         H  0.47656774  0.48493991  0.90451622     0.09000
H17         H  0.45658614  0.61624175  0.94310777     0.08100
N18         N  0.31870909  0.43700735  0.91942571    -0.35800
N19         N  0.28617074  0.44145085  0.94671115    -0.28000
C20         C  0.25938250  0.40665298  0.94265893    -0.03200
C21         C  0.27596268  0.37978367  0.91101430     0.05400
C22         C  0.31335024  0.40028366  0.89717190     0.03500
H23         H  0.22960596  0.40185748  0.96047175     0.08600
H24         H  0.33539059  0.38911514  0.87267596     0.07400
N25         N  0.86300575  0.46262821  0.04499496    -0.27000
N26         N  0.82421347  0.44468723  0.04099302    -0.34800
C27         C  0.82461407  0.40417034  0.05744264     0.01400
C28         C  0.86538733  0.39611360  0.07288507     0.07400
C29         C  0.88902823  0.43384586  0.06472948    -0.05700
H30         H  0.79667743  0.38282722  0.05975668     0.08100
H31         H  0.92223199  0.44025913  0.07339810     0.09300
Cu32       Cu  0.77014875  0.47704347  0.01922759     0.44200
Cu33       Cu  0.87689326  0.52678345  0.02603768     0.42000
Cu34       Cu  0.77972883  0.59123372  0.03172100     0.43900
N35         N  0.71973185  0.51910617  0.00712487    -0.34300
N36         N  0.72278093  0.56137540  0.01394232    -0.28600
C37         C  0.68604972  0.58060765  0.00157278    -0.04700
C38         C  0.65833544  0.54877120  0.98641154     0.07500
C39         C  0.68085990  0.51016385  0.99030282     0.01300
H40         H  0.68097906  0.61540781  0.00141587     0.09000
H41         H  0.67006084  0.47804957  0.98093140     0.08100
N42         N  0.84016581  0.61697822  0.01898375    -0.35800
N43         N  0.87490247  0.59337559  0.01156402    -0.28000
C44         C  0.90400065  0.61829097  0.98998781    -0.03200
C45         C  0.88691325  0.65967118  0.98467275     0.05400
C46         C  0.84656461  0.65738209  0.00358482     0.03500
H47         H  0.93367312  0.60627209  0.97611108     0.08600
H48         H  0.82134816  0.68139508  0.00076356     0.07400
N49         N  0.51092272  0.97606046  0.19590811    -0.27000
N50         N  0.49280118  0.98175166  0.23382037    -0.34800
C51         C  0.45300879  0.96432569  0.23427995     0.01400
C52         C  0.44521358  0.94601016  0.19503338     0.07400
C53         C  0.48284281  0.95358069  0.17137427    -0.05700
H54         H  0.43296618  0.96110475  0.26264448     0.08100
H55         H  0.49000227  0.94176110  0.13965100     0.09300
Cu56       Cu  0.52561291  0.99816456  0.28808068     0.44200
Cu57       Cu  0.57500920  0.99590067  0.18345732     0.42000
Cu58       Cu  0.63812236  0.98318442  0.28058166     0.43900
N59         N  0.56353738  0.98841795  0.34073792    -0.34300
N60         N  0.60552834  0.98178385  0.33808177    -0.28600
C61         C  0.62132922  0.97616978  0.37758153    -0.04700
C62         C  0.58723189  0.97875288  0.40619612     0.07500
C63         C  0.55105695  0.98621120  0.38182435     0.01300
H64         H  0.65497361  0.97071010  0.38484310     0.09000
H65         H  0.51823624  0.99035745  0.39312632     0.08100
N66         N  0.66272735  0.00704360  0.22380239    -0.35800
N67         N  0.63986297  0.01579869  0.18927657    -0.28000
C68         C  0.66436614  0.04090355  0.16274210    -0.03200
C69         C  0.70449132  0.04720212  0.18151409     0.05400
C70         C  0.70209077  0.02513531  0.21990986     0.03500
H71         H  0.65325127  0.05504464  0.13306731     0.08600
H72         H  0.72589227  0.02565651  0.24506577     0.07400
N73         N  0.49774478  0.01420636  0.79962619    -0.27000
N74         N  0.47917194  0.00868872  0.76206200    -0.34800
C75         C  0.43872652  0.02404166  0.76346590     0.01400
C76         C  0.43111581  0.04074582  0.80353295     0.07400
C77         C  0.46930797  0.03428031  0.82575064    -0.05700
H78         H  0.41743387  0.02580617  0.73624740     0.08100
H79         H  0.47632869  0.04470749  0.85791279     0.09300
Cu80       Cu  0.51070339  0.98959635  0.70707076     0.44200
Cu81       Cu  0.56241389  0.99662963  0.81117530     0.42000
Cu82       Cu  0.62333250  0.00780344  0.71313275     0.43900
N83         N  0.55117237  0.98527400  0.65463547    -0.34300
N84         N  0.59294074  0.99362615  0.65691923    -0.28600
C85         C  0.61097019  0.98918914  0.61812571    -0.04700
C86         C  0.57884679  0.97769775  0.58976825     0.07500
C87         C  0.54118712  0.97588836  0.61403851     0.01300
H88         H  0.64494970  0.99417783  0.61115219     0.09000
H89         H  0.50868714  0.97002250  0.60293006     0.08100
N90         N  0.65054731  0.99088249  0.77021207    -0.35800
N91         N  0.62862011  0.98171518  0.80561457    -0.28000
C92         C  0.65510553  0.96004719  0.83248116    -0.03200
C93         C  0.69542530  0.95617832  0.81274581     0.05400
C94         C  0.69104067  0.97641636  0.77363154     0.03500
H95         H  0.64533315  0.94664084  0.86316474     0.08600
H96         H  0.71441646  0.97674880  0.74772366     0.07400
N97         N  0.05894817  0.17456955  0.57776867    -0.27000
N98         N  0.04870981  0.20932557  0.60032682    -0.34800
C99         C  0.06478213  0.20554193  0.63980503     0.01400
C100        C  0.08706489  0.16701250  0.64281000     0.07400
C101        C  0.08312122  0.14819825  0.60266175    -0.05700
H102        H  0.06470936  0.23145481  0.66303945     0.08100
H103        H  0.09880760  0.11895838  0.59167624     0.09300
Cu104      Cu  0.02896465  0.26804898  0.57529020     0.44200
Cu105      Cu  0.04355813  0.16881408  0.51241120     0.42000
Cu106      Cu  0.05475498  0.27485217  0.46565769     0.43900
N107        N  0.03920132  0.32677745  0.54428760    -0.34300
N108        N  0.05053527  0.32865354  0.50360545    -0.28600
C109        C  0.05839908  0.37012645  0.49232169    -0.04700
C110        C  0.05281691  0.39573108  0.52801295     0.07500
C111        C  0.04013436  0.36723042  0.56038957     0.01300
H112        H  0.06728089  0.38065758  0.46036038     0.09000
H113        H  0.03349280  0.37508568  0.59342734     0.08100
N114        N  0.03788266  0.22116917  0.43112553    -0.35800
N115        N  0.02932995  0.18236116  0.44784271    -0.28000
C116        C  0.00908687  0.15825891  0.41784923    -0.03200
C117        C  0.00589126  0.18334950  0.38071090     0.05400
C118        C  0.02458335  0.22273975  0.39055148     0.03500
H119        H  0.99610263  0.12583021  0.42313606     0.08600
H120        H  0.02488021  0.25187033  0.37086226     0.07400
N121        N  0.02323598  0.79779683  0.55429677    -0.27000
N122        N  0.99846670  0.76261696  0.55275508    -0.34800
C123        C  0.97278474  0.76079492  0.58734347     0.01400
C124        C  0.98256239  0.79556503  0.61339823     0.07400
C125        C  0.01413265  0.81908664  0.59087604    -0.05700
H126        H  0.95117436  0.73381128  0.59443493     0.08100
H127        H  0.03168466  0.84737360  0.60197592     0.09300
Cu128      Cu  0.01282142  0.70853657  0.51753015     0.44200
Cu129      Cu  0.07332127  0.80787134  0.50969692     0.42000
Cu130      Cu  0.12731601  0.70521763  0.50967365     0.43900
N131        N  0.04709995  0.65155724  0.52005872    -0.34300
N132        N  0.08971851  0.65047329  0.52033462    -0.28600
C133        C  0.10242018  0.60904720  0.52517425    -0.04700
C134        C  0.06586069  0.58297876  0.52907668     0.07500
C135        C  0.03137209  0.61104458  0.52541097     0.01300
H136        H  0.13573944  0.59868015  0.52531338     0.09000
H137        H  0.99734269  0.60275661  0.52589268     0.08100
N138        N  0.14520246  0.75659972  0.47068145    -0.35800
N139        N  0.12325023  0.79306179  0.46665937    -0.28000
C140        C  0.13521877  0.81263807  0.42949235    -0.03200
C141        C  0.16629630  0.78703055  0.40945490     0.05400
C142        C  0.17188351  0.75226679  0.43719013     0.03500
H143        H  0.11972067  0.84115435  0.41642504     0.08600
H144        H  0.19111371  0.72358521  0.43175932     0.07400
C145        C  0.27677091  0.14469524  0.81755004     0.03500
C146        C  0.24559842  0.13685262  0.78578418    -0.12700
C147        C  0.21136969  0.16582087  0.77900685     0.01000
C148        C  0.20869451  0.20351579  0.80401181    -0.11200
C149        C  0.24022045  0.21294114  0.83470051     0.03500
C150        C  0.27324897  0.18276314  0.84222836    -0.10600
H151        H  0.24867483  0.10899199  0.76507439     0.09100
H152        H  0.18334388  0.22684406  0.79793491     0.06600
H153        H  0.29753672  0.19019909  0.86587979     0.06400
C154        C  0.90843366  0.82193724  0.78283112     0.03500
C155        C  0.91856048  0.79399267  0.81716398    -0.12700
C156        C  0.89251580  0.79201787  0.85408917     0.01000
C157        C  0.85787095  0.82108811  0.85809407    -0.11200
C158        C  0.84827537  0.85071744  0.82515981     0.03500
C159        C  0.87320950  0.85029212  0.78730300    -0.10600
H160        H  0.94588820  0.77237235  0.81445810     0.09100
H161        H  0.83751323  0.81984024  0.88641769     0.06600
H162        H  0.86369713  0.87054932  0.76054984     0.06400
C163        C  0.26185867  0.75947311  0.17003037     0.03500
C164        C  0.29523959  0.79017935  0.16351703    -0.12700
C165        C  0.30497801  0.82111136  0.19487758     0.01000
C166        C  0.28076950  0.82099827  0.23313566    -0.11200
C167        C  0.24685475  0.79088092  0.24015726     0.03500
C168        C  0.23700172  0.76093958  0.20767302    -0.10600
H169        H  0.31413891  0.78944348  0.13425758     0.09100
H170        H  0.28936575  0.84367172  0.25808989     0.06600
H171        H  0.21037200  0.73815463  0.21171710     0.06400
C172        C  0.84880284  0.16510551  0.17874933     0.03500
C173        C  0.85401884  0.20338542  0.15440176    -0.12700
C174        C  0.88588072  0.23443091  0.16469185     0.01000
C175        C  0.91263320  0.22679612  0.20009367    -0.11200
C176        C  0.90783179  0.18854391  0.22488266     0.03500
C177        C  0.87568880  0.15817119  0.21409722    -0.10600
H178        H  0.83228413  0.20964766  0.12812274     0.09100
H179        H  0.93639711  0.25113700  0.20899900     0.06600
H180        H  0.87082162  0.12956574  0.23411065     0.06400
C181        C  0.18405425  0.78969805  0.36492885     0.00200
C182        C  0.19418244  0.75054918  0.34422122    -0.11700
C183        C  0.21440994  0.75011899  0.30416387     0.02400
C184        C  0.22343196  0.78968919  0.28227317     0.00100
C185        C  0.21196025  0.82900173  0.30226283    -0.11600
C186        C  0.19300873  0.82936334  0.34329862     0.02300
H187        H  0.18707355  0.71959668  0.35966818     0.15300
H188        H  0.21859317  0.85973734  0.28611498     0.15300
C189        C  0.18551523  0.87087806  0.36318025     0.36900
C190        C  0.22791674  0.70838865  0.28805961     0.36800
N191        N  0.17980733  0.90426942  0.37905950    -0.43400
N192        N  0.23856049  0.67478320  0.27546422    -0.43400
C193        C  0.93081907  0.81669612  0.74059137     0.00200
C194        C  0.93791730  0.77432856  0.72570447    -0.11700
C195        C  0.95664318  0.76674557  0.68572792     0.02400
C196        C  0.96685968  0.80216752  0.65803741     0.00100
C197        C  0.96151611  0.84463754  0.67337752    -0.11600
C198        C  0.94428700  0.85216045  0.71435296     0.02300
H199        H  0.92855487  0.74654223  0.74540512     0.15300
H200        H  0.97055302  0.87216359  0.65315574     0.15300
C201        C  0.94282270  0.89646016  0.72908943     0.36900
C202        C  0.96700984  0.72223495  0.67548057     0.36800
N203        N  0.94249494  0.93225501  0.74029092    -0.43400
N204        N  0.97544588  0.68646527  0.66784975    -0.43400
C205        C  0.06406708  0.53502158  0.53218519     0.00200
C206        C  0.09424742  0.51095542  0.50879352    -0.11700
C207        C  0.09197016  0.46555219  0.50790215     0.02400
C208        C  0.05874376  0.44338374  0.53068483     0.00100
C209        C  0.02992382  0.46732578  0.55587481    -0.11600
C210        C  0.03232418  0.51279968  0.55686621     0.02300
H211        H  0.11918997  0.52768166  0.49029553     0.15300
H212        H  0.00483630  0.45055236  0.57413752     0.15300
C213        C  0.00263080  0.53561514  0.58437704     0.36900
C214        C  0.12491675  0.44273823  0.48428270     0.36800
N215        N  0.97889593  0.55387154  0.60651687    -0.43400
N216        N  0.15138175  0.42455448  0.46535068    -0.43400
C217        C  0.98114133  0.17565987  0.34113843     0.00200
C218        C  0.00259966  0.18135056  0.30175936    -0.11700
C219        C  0.97957978  0.18393773  0.26342065     0.02400
C220        C  0.93399911  0.18168356  0.26410752     0.00100
C221        C  0.91266501  0.17399722  0.30336021    -0.11600
C222        C  0.93576026  0.17106623  0.34168773     0.02300
H223        H  0.03748306  0.18510758  0.30113453     0.15300
H224        H  0.87765702  0.17218676  0.30432247     0.15300
C225        C  0.91191478  0.16690282  0.38135824     0.36900
C226        C  0.00347930  0.18865748  0.22382733     0.36800
N227        N  0.89270249  0.16375049  0.41312252    -0.43400
N228        N  0.02266240  0.19228514  0.19208922    -0.43400
C229        C  0.11757184  0.15682495  0.67781154     0.00200
C230        C  0.16169820  0.15245375  0.66828689    -0.11700
C231        C  0.19275910  0.15378956  0.70079364     0.02400
C232        C  0.17970124  0.15873826  0.74394631     0.00100
C233        C  0.13534254  0.16032245  0.75352920    -0.11600
C234        C  0.10443210  0.15947685  0.72103019     0.02300
H235        H  0.17217603  0.15118784  0.63517020     0.15300
H236        H  0.12486621  0.16353176  0.78650594     0.15300
C237        C  0.05931545  0.16227042  0.73272023     0.36900
C238        C  0.23783900  0.15383383  0.68858898     0.36800
N239        N  0.02314098  0.16443888  0.74202029    -0.43400
N240        N  0.27400123  0.15394907  0.67890166    -0.43400
C241        C  0.39245465  0.06620265  0.81557103     0.00200
C242        C  0.35167674  0.04606546  0.81355337    -0.11700
C243        C  0.31361474  0.07031150  0.81735286     0.02400
C244        C  0.31584454  0.11626015  0.82107220     0.00100
C245        C  0.35694623  0.13592771  0.82513347    -0.11600
C246        C  0.39490149  0.11133282  0.82305744     0.02300
H247        H  0.34958836  0.01122295  0.80837200     0.15300
H248        H  0.35975945  0.17098781  0.82794073     0.15300
C249        C  0.43600754  0.13364280  0.82590900     0.36900
C250        C  0.27290158  0.04697086  0.81789033     0.36800
N251        N  0.46893021  0.15156113  0.82837922    -0.43400
N252        N  0.24033978  0.02814333  0.81832823    -0.43400
C253        C  0.73390346  0.93045950  0.82491584     0.00200
C254        C  0.77480031  0.94934749  0.81761753    -0.11700
C255        C  0.81246874  0.92455875  0.81986889     0.02400
C256        C  0.80975882  0.87942999  0.82854425     0.00100
C257        C  0.76905333  0.86098851  0.83843583    -0.11600
C258        C  0.73129229  0.88606385  0.83684839     0.02300
H259        H  0.77722604  0.98359112  0.80902719     0.15300
H260        H  0.76648531  0.82642432  0.84549537     0.15300
C261        C  0.69023174  0.86465329  0.84443026     0.36900
C262        C  0.85348735  0.94654603  0.81397152     0.36800
N263        N  0.65736616  0.84736344  0.85056257    -0.43400
N264        N  0.88612915  0.96477877  0.80979985    -0.43400
C265        C  0.58850156  0.97573157  0.45302126     0.00200
C266        C  0.55915446  0.94771298  0.47395043    -0.11700
C267        C  0.55673622  0.94616121  0.51854633     0.02400
C268        C  0.58329132  0.97408028  0.54285939     0.00100
C269        C  0.61376140  0.00094314  0.52171364    -0.11600
C270        C  0.61661989  0.00192530  0.47716223     0.02300
H271        H  0.53807162  0.92693945  0.45531633     0.15300
H272        H  0.63427650  0.02265537  0.53987622     0.14900
C273        C  0.64653380  0.03226415  0.45709240     0.36900
C274        C  0.52773939  0.91471193  0.53823401     0.36800
N275        N  0.67042349  0.05669543  0.44107571    -0.43400
N276        N  0.50457794  0.88927627  0.55378648    -0.43400
C277        C  0.40839143  0.91629414  0.18637562     0.00200
C278        C  0.41647890  0.87290438  0.17536293    -0.11700
C279        C  0.38325234  0.84141866  0.17677112     0.02400
C280        C  0.34073515  0.85350513  0.18854810     0.00100
C281        C  0.33242221  0.89750306  0.19699763    -0.11600
C282        C  0.36568370  0.92866891  0.19626359     0.02300
H283        H  0.44934609  0.86297507  0.16852085     0.15300
H284        H  0.29989048  0.90739264  0.20534442     0.15300
C285        C  0.35533244  0.97313696  0.20664203     0.36900
C286        C  0.39450558  0.79656816  0.16935366     0.36800
N287        N  0.34707984  0.00876331  0.21500621    -0.43400
N288        N  0.40357450  0.76063017  0.16339750    -0.43400
C289        C  0.74027774  0.07726559  0.16964992     0.00200
C290        C  0.78242790  0.06082777  0.16977116    -0.11700
C291        C  0.81838195  0.08880878  0.16949228     0.02400
C292        C  0.81244983  0.13436208  0.17023343     0.00100
C293        C  0.77029751  0.15075508  0.16687943    -0.11600
C294        C  0.73431128  0.12266535  0.16650266     0.02300
H295        H  0.78721648  0.02592501  0.17188189     0.15300
H296        H  0.76524186  0.18565277  0.16726921     0.15300
C297        C  0.69171669  0.14141996  0.16681560     0.36900
C298        C  0.86095557  0.06992902  0.16909254     0.36800
N299        N  0.65764659  0.15664171  0.16710797    -0.43400
N300        N  0.89505875  0.05477790  0.16875126    -0.43400
C301        C  0.88801531  0.27652295  0.14066019     0.00200
C302        C  0.88449915  0.31576730  0.16325657    -0.11700
C303        C  0.87959546  0.35561147  0.14162102     0.02400
C304        C  0.87828333  0.35660317  0.09660384     0.00100
C305        C  0.88401695  0.31789475  0.07394862    -0.11600
C306        C  0.88931995  0.27812169  0.09547685     0.02300
H307        H  0.88332980  0.31505647  0.19790350     0.15300
H308        H  0.88322082  0.31860937  0.03929945     0.15300
C309        C  0.89585875  0.23940780  0.07044847     0.36900
C310        C  0.87318726  0.39461894  0.16624378     0.36800
N311        N  0.90111950  0.20840888  0.05034572    -0.43400
N312        N  0.86794339  0.42587298  0.18597204    -0.43400
C313        C  0.89928778  0.75775565  0.88742680     0.00200
C314        C  0.89896910  0.76968008  0.93071476    -0.11700
C315        C  0.89855975  0.73802490  0.96324087     0.02400
C316        C  0.89924293  0.69345667  0.95280837     0.00100
C317        C  0.90279445  0.68148114  0.90983503    -0.11600
C318        C  0.90216855  0.71295998  0.87716936     0.02300
H319        H  0.89737031  0.80381813  0.93913265     0.15300
H320        H  0.90237277  0.64723037  0.90158406     0.15300
C321        C  0.90005973  0.69769939  0.83371085     0.36900
C322        C  0.89608502  0.75190040  0.00715957     0.36800
N323        N  0.89816809  0.68477467  0.79913613    -0.43400
N324        N  0.89416071  0.76292004  0.04239585    -0.43400
C325        C  0.53107481  0.55781269  0.93249741     0.00200
C326        C  0.54245918  0.58389724  0.96748596    -0.11700
C327        C  0.58407743  0.58277366  0.98462529     0.02400
C328        C  0.61520481  0.55456635  0.96711030     0.00100
C329        C  0.60462687  0.53030059  0.93078423    -0.11600
C330        C  0.56334528  0.53230025  0.91294900     0.02300
H331        H  0.51837072  0.60385518  0.98296057     0.15300
H332        H  0.62881693  0.50976757  0.91612264     0.15300
C333        C  0.55547032  0.50867395  0.87403189     0.36900
C334        C  0.59291237  0.60902034  0.02168575     0.36800
N335        N  0.54936261  0.48989549  0.84270162    -0.43400
N336        N  0.59980900  0.63029880  0.05126439    -0.43400
C337        C  0.25872812  0.33850394  0.89326132     0.00200
C338        C  0.25648890  0.33484732  0.84866153    -0.11700
C339        C  0.24820477  0.29475088  0.82927772     0.02400
C340        C  0.24245617  0.25682031  0.85465552     0.00100
C341        C  0.24298092  0.26069612  0.89942413    -0.11600
C342        C  0.25058404  0.30122201  0.91884069     0.02300
H343        H  0.26284288  0.36330869  0.82874206     0.15300
H344        H  0.23865214  0.23179525  0.91918834     0.15300
C345        C  0.25282551  0.30316386  0.96482411     0.36900
C346        C  0.24877011  0.29302303  0.78315050     0.36800
N347        N  0.25460550  0.30478668  0.00170384    -0.43400
N348        N  0.24909894  0.29160669  0.74620269    -0.43400
C349        C  0.26022665  0.65415019  0.08007249     0.00200
C350        C  0.25224747  0.69696190  0.06620782    -0.11700
C351        C  0.24980499  0.73134167  0.09522039     0.02400
C352        C  0.25594372  0.72336122  0.13916062     0.00100
C353        C  0.26098560  0.68016178  0.15342277    -0.11600
C354        C  0.26314801  0.64559831  0.12435757     0.02300
H355        H  0.24935958  0.70381167  0.03229743     0.15300
H356        H  0.26578806  0.67370861  0.18716107     0.15300
C357        C  0.27206600  0.60252546  0.14062547     0.36900
C358        C  0.24138479  0.77460101  0.07911804     0.36800
N359        N  0.27928161  0.56808640  0.15389344    -0.43400
N360        N  0.23448293  0.80925905  0.06625258    -0.43400
loop_ 
_geom_bond_atom_site_label_1 
_geom_bond_atom_site_label_2 
_geom_bond_distance 
_geom_bond_site_symmetry_2 
_ccdc_geom_bond_type 
N1            N2   1.324   1_554  A
N1            C5   1.354       .  A
N1           Cu9   2.111   1_554  S
N2            C3   1.339   1_556  A
N2           Cu8   2.060       .  S
C3            C4   1.377       .  A
C3            H6   1.082       .  S
C4            C5   1.393       .  A
C4          C349   1.485       .  S
C5            H7   1.082       .  S
Cu8          N11   2.059       .  S
Cu9          N19   2.111       .  S
Cu10         N12   2.060       .  S
Cu10         N18   2.062       .  S
N11          N12   1.316       .  A
N11          C15   1.343       .  A
N12          C13   1.342       .  A
C13          C14   1.389       .  A
C13          H16   1.081       .  S
C14          C15   1.389       .  A
C14         C325   1.487       .  S
C15          H17   1.081       .  S
N18          N19   1.324       .  A
N18          C22   1.340       .  A
N19          C20   1.354       .  A
C20          C21   1.392       .  A
C20          H23   1.082       .  S
C21          C22   1.378       .  A
C21         C337   1.485       .  S
C22          H24   1.082       .  S
N25          N26   1.324       .  A
N25          C29   1.350       .  A
N25         Cu33   2.093       .  S
N26          C27   1.343       .  A
N26         Cu32   2.071       .  S
C27          C28   1.379       .  A
C27          H30   1.082       .  S
C28          C29   1.386       .  A
C28         C304   1.477       .  S
C29          H31   1.082       .  S
Cu32         N35   2.070       .  S
Cu33         N43   2.093       .  S
Cu34         N36   2.062       .  S
Cu34         N42   2.059       .  S
N35          N36   1.320       .  A
N35          C39   1.344   1_554  A
N36          C37   1.344       .  A
C37          C38   1.384   1_554  A
C37          H40   1.082       .  S
C38          C39   1.386       .  A
C38         C328   1.481       .  S
C39          H41   1.082       .  S
N42          N43   1.322       .  A
N42          C46   1.340       .  A
N43          C44   1.350   1_554  A
C44          C45   1.390       .  A
C44          H47   1.082       .  S
C45          C46   1.379   1_556  A
C45         C316   1.479       .  S
C46          H48   1.082       .  S
N49          N50   1.322       .  A
N49          C53   1.353       .  A
N49         Cu57   2.102       .  S
N50          C51   1.338       .  A
N50         Cu56   2.049       .  S
C51          C52   1.377       .  A
C51          H54   1.082       .  S
C52          C53   1.392       .  A
C52         C277   1.482       .  S
C53          H55   1.082       .  S
Cu56         N59   2.052       .  S
Cu57         N67   2.103   1_565  S
Cu58         N60   2.056       .  S
Cu58         N66   2.055   1_565  S
N59          N60   1.319       .  A
N59          C63   1.341       .  A
N60          C61   1.343       .  A
C61          C62   1.382       .  A
C61          H64   1.082       .  S
C62          C63   1.379       .  A
C62         C265   1.468       .  S
C63          H65   1.082       .  S
N66          N67   1.323       .  A
N66          C70   1.339       .  A
N67          C68   1.352       .  A
C68          C69   1.391       .  A
C68          H71   1.082       .  S
C69          C70   1.376       .  A
C69         C289   1.479       .  S
C70          H72   1.082       .  S
N73          N74   1.324       .  A
N73          C77   1.353       .  A
N73         Cu81   2.111   1_545  S
N74          C75   1.342       .  A
N74         Cu80   2.063   1_545  S
C75          C76   1.378       .  A
C75          H78   1.082       .  S
C76          C77   1.391       .  A
C76         C241   1.483       .  S
C77          H79   1.082       .  S
Cu80         N83   2.062       .  S
Cu81         N91   2.110       .  S
Cu82         N84   2.049   1_545  S
Cu82         N90   2.046   1_545  S
N83          N84   1.318       .  A
N83          C87   1.343       .  A
N84          C85   1.341       .  A
C85          C86   1.383       .  A
C85          H88   1.082       .  S
C86          C87   1.387       .  A
C86         C268   1.478       .  S
C87          H89   1.081       .  S
N90          N91   1.322       .  A
N90          C94   1.338       .  A
N91          C92   1.354       .  A
C92          C93   1.395       .  A
C92          H95   1.082       .  S
C93          C94   1.377       .  A
C93         C253   1.485       .  S
C94          H96   1.082       .  S
N97          N98   1.324       .  A
N97         C101   1.354       .  A
N97        Cu105   2.112       .  S
N98          C99   1.340       .  A
N98        Cu104   2.060       .  S
C99         C100   1.378       .  A
C99         H102   1.082       .  S
C100        C101   1.393       .  A
C100        C229   1.485       .  S
C101        H103   1.082       .  S
Cu104       N107   2.062       .  S
Cu105       N115   2.110       .  S
Cu106       N108   2.047       .  S
Cu106       N114   2.045       .  S
N107        N108   1.319       .  A
N107        C111   1.344       .  A
N108        C109   1.339       .  A
C109        C110   1.382       .  A
C109        H112   1.081       .  S
C110        C111   1.386       .  A
C110        C208   1.476       .  S
C111        H113   1.082       .  S
N114        N115   1.322       .  A
N114        C118   1.338       .  A
N115        C116   1.354       .  A
C116        C117   1.394       .  A
C116        H119   1.082   1_455  S
C117        C118   1.374       .  A
C117        C217   1.481   1_455  S
C118        H120   1.082       .  S
N121        N122   1.321   1_455  A
N121        C125   1.352       .  A
N121       Cu129   2.097       .  S
N122        C123   1.338       .  A
N122       Cu128   2.051   1_655  S
C123        C124   1.381       .  A
C123        H126   1.081       .  S
C124        C125   1.394   1_655  A
C124        C196   1.491       .  S
C125        H127   1.082       .  S
Cu128       N131   2.056       .  S
Cu129       N139   2.097       .  S
Cu130       N132   2.060       .  S
Cu130       N138   2.056       .  S
N131        N132   1.320       .  A
N131        C135   1.341       .  A
N132        C133   1.343       .  A
C133        C134   1.384       .  A
C133        H136   1.082       .  S
C134        C135   1.383       .  A
C134        C205   1.476       .  S
C135        H137   1.081   1_455  S
N138        N139   1.321       .  A
N138        C142   1.337       .  A
N139        C140   1.353       .  A
C140        C141   1.396       .  A
C140        H143   1.081       .  S
C141        C142   1.383       .  A
C141        C181   1.495       .  S
C142        H144   1.081       .  S
C145        C146   1.411       .  A
C145        C150   1.411       .  A
C145        C244   1.502       .  S
C146        C147   1.406       .  A
C146        H151   1.082       .  S
C147        C148   1.405       .  A
C147        C232   1.493       .  S
C148        C149   1.404       .  A
C148        H152   1.084       .  S
C149        C150   1.406       .  A
C149        C340   1.491       .  S
C150        H153   1.083       .  S
C154        C155   1.409       .  A
C154        C159   1.408       .  A
C154        C193   1.498       .  S
C155        C156   1.404       .  A
C155        H160   1.083       .  S
C156        C157   1.407       .  A
C156        C313   1.493       .  S
C157        C158   1.405       .  A
C157        H161   1.084       .  S
C158        C159   1.409       .  A
C158        C256   1.493       .  S
C159        H162   1.083       .  S
C163        C164   1.405       .  A
C163        C168   1.403       .  A
C163        C352   1.488       .  S
C164        C165   1.404       .  A
C164        H169   1.083       .  S
C165        C166   1.407       .  A
C165        C280   1.493       .  S
C166        C167   1.408       .  A
C166        H170   1.084       .  S
C167        C168   1.409       .  A
C167        C184   1.499       .  S
C168        H171   1.082       .  S
C172        C173   1.403       .  A
C172        C177   1.405       .  A
C172        C292   1.489       .  S
C173        C174   1.407       .  A
C173        H178   1.084       .  S
C174        C175   1.408       .  A
C174        C301   1.491       .  S
C175        C176   1.409       .  A
C175        H179   1.084       .  S
C176        C177   1.403       .  A
C176        C220   1.490       .  S
C177        H180   1.084       .  S
C181        C182   1.407       .  A
C181        C186   1.413       .  A
C182        C183   1.397       .  A
C182        H187   1.083       .  S
C183        C184   1.415       .  A
C183        C190   1.445       .  S
C184        C185   1.411       .  A
C185        C186   1.408       .  A
C185        H188   1.084       .  S
C186        C189   1.443       .  S
C189        N191   1.157       .  T
C190        N192   1.157       .  T
C193        C194   1.404       .  A
C193        C198   1.417       .  A
C194        C195   1.397       .  A
C194        H199   1.085       .  S
C195        C196   1.417       .  A
C195        C202   1.445       .  S
C196        C197   1.404       .  A
C197        C198   1.406       .  A
C197        H200   1.085       .  S
C198        C201   1.441       .  S
C201        N203   1.157       .  T
C202        N204   1.158       .  T
C205        C206   1.402       .  A
C205        C210   1.413       .  A
C206        C207   1.396       .  A
C206        H211   1.085       .  S
C207        C208   1.413       .  A
C207        C214   1.444       .  S
C208        C209   1.403       .  A
C209        C210   1.398       .  A
C209        H212   1.085       .  S
C210        C213   1.444       .  S
C213        N215   1.157   1_455  T
C214        N216   1.157       .  T
C217        C218   1.404   1_655  A
C217        C222   1.410       .  A
C218        C219   1.402   1_455  A
C218        H223   1.085       .  S
C219        C220   1.412       .  A
C219        C226   1.444   1_655  S
C220        C221   1.407       .  A
C221        C222   1.404       .  A
C221        H224   1.085       .  S
C222        C225   1.444       .  S
C225        N227   1.157       .  T
C226        N228   1.157       .  T
C229        C230   1.403       .  A
C229        C234   1.412       .  A
C230        C231   1.406       .  A
C230        H235   1.085       .  S
C231        C232   1.416       .  A
C231        C238   1.444       .  S
C232        C233   1.404       .  A
C233        C234   1.402       .  A
C233        H236   1.085       .  S
C234        C237   1.444       .  S
C237        N239   1.157       .  T
C238        N240   1.157       .  T
C241        C242   1.403       .  A
C241        C246   1.409       .  A
C242        C243   1.404       .  A
C242        H247   1.085       .  S
C243        C244   1.418       .  A
C243        C250   1.444       .  S
C244        C245   1.410       .  A
C245        C246   1.404       .  A
C245        H248   1.084       .  S
C246        C249   1.443       .  S
C249        N251   1.157       .  T
C250        N252   1.157       .  T
C253        C254   1.404       .  A
C253        C258   1.412       .  A
C254        C255   1.400       .  A
C254        H259   1.085       .  S
C255        C256   1.412       .  A
C255        C262   1.443       .  S
C256        C257   1.408       .  A
C257        C258   1.406       .  A
C257        H260   1.085       .  S
C258        C261   1.443       .  S
C261        N263   1.157       .  T
C262        N264   1.157       .  T
C265        C266   1.401       .  A
C265        C270   1.408   1_565  A
C266        C267   1.397       .  A
C266        H271   1.085       .  S
C267        C268   1.413       .  A
C267        C274   1.444       .  S
C268        C269   1.406   1_565  A
C269        C270   1.396       .  A
C269        H272   1.084       .  S
C270        C273   1.444       .  S
C273        N275   1.157       .  T
C274        N276   1.157       .  T
C277        C278   1.403       .  A
C277        C282   1.411       .  A
C278        C279   1.406       .  A
C278        H283   1.085       .  S
C279        C280   1.417       .  A
C279        C286   1.444       .  S
C280        C281   1.404       .  A
C281        C282   1.399       .  A
C281        H284   1.085       .  S
C282        C285   1.444       .  S
C285        N287   1.157   1_565  T
C286        N288   1.157       .  T
C289        C290   1.403       .  A
C289        C294   1.411       .  A
C290        C291   1.400       .  A
C290        H295   1.085       .  S
C291        C292   1.413       .  A
C291        C298   1.444       .  S
C292        C293   1.407       .  A
C293        C294   1.403       .  A
C293        H296   1.085       .  S
C294        C297   1.443       .  S
C297        N299   1.157       .  T
C298        N300   1.157       .  T
C301        C302   1.407       .  A
C301        C306   1.415       .  A
C302        C303   1.404       .  A
C302        H307   1.085       .  S
C303        C304   1.410       .  A
C303        C310   1.444       .  S
C304        C305   1.401       .  A
C305        C306   1.402       .  A
C305        H308   1.085       .  S
C306        C309   1.444       .  S
C309        N311   1.157       .  T
C310        N312   1.157       .  T
C313        C314   1.406       .  A
C313        C318   1.419       .  A
C314        C315   1.402       .  A
C314        H319   1.084       .  S
C315        C316   1.410       .  A
C315        C322   1.444   1_556  S
C316        C317   1.401       .  A
C317        C318   1.402       .  A
C317        H320   1.085       .  S
C318        C321   1.444       .  S
C321        N323   1.157       .  T
C322        N324   1.157       .  T
C325        C326   1.407       .  A
C325        C330   1.413       .  A
C326        C327   1.400       .  A
C326        H331   1.083       .  S
C327        C328   1.412       .  A
C327        C334   1.444   1_556  S
C328        C329   1.403       .  A
C329        C330   1.400       .  A
C329        H332   1.085       .  S
C330        C333   1.444       .  S
C333        N335   1.157       .  T
C334        N336   1.157       .  T
C337        C338   1.403       .  A
C337        C342   1.411       .  A
C338        C339   1.400       .  A
C338        H343   1.085       .  S
C339        C340   1.414       .  A
C339        C346   1.445       .  S
C340        C341   1.407       .  A
C341        C342   1.408       .  A
C341        H344   1.084       .  S
C342        C345   1.443       .  S
C345        N347   1.157   1_556  T
C346        N348   1.157       .  T
C349        C350   1.406       .  A
C349        C354   1.412       .  A
C350        C351   1.400       .  A
C350        H355   1.085       .  S
C351        C352   1.409       .  A
C351        C358   1.444       .  S
C352        C353   1.407       .  A
C353        C354   1.405       .  A
C353        H356   1.084       .  S
C354        C357   1.443       .  S
C357        N359   1.157       .  T
C358        N360   1.157       .  T
