geometry optimzed in LAMMPS
_audit_creation_date              2020-11-30 
_audit_creation_method            'lammps2cif' 
_symmetry_space_group_name_H-M    'P1' 
_symmetry_Int_Tables_number       1 
_symmetry_cell_setting            triclinic 
loop_ 
_symmetry_equiv_pos_as_xyz 
  x,y,z 
_cell_length_a                    46.3248122 
_cell_length_b                    46.35132044414563 
_cell_length_c                    24.326723992000503 
_cell_angle_alpha                 90.20423105388389 
_cell_angle_beta                  89.99182964734774 
_cell_angle_gamma                 119.9484140086785 
loop_ 
_atom_site_label 
_atom_site_type_symbol 
_atom_site_fract_x 
_atom_site_fract_y 
_atom_site_fract_z 
_atom_site_charge 
C1          C  0.86189006  0.72177308  0.74463420     0.05500
C2          C  0.82813701  0.70724679  0.73039106    -0.10600
C3          C  0.81266779  0.67749501  0.70012921     0.03000
C4          C  0.83093372  0.66227524  0.68411025    -0.09200
C5          C  0.86462549  0.67669519  0.69835387     0.05500
C6          C  0.88013108  0.70647009  0.72858494    -0.08600
H7          H  0.81394608  0.71896259  0.74299300     0.11100
H8          H  0.81889611  0.63913682  0.66096571     0.08600
H9          H  0.90619357  0.71756735  0.73983069     0.08500
C10         C  0.71032809  0.87639440  0.42236943     0.05500
C11         C  0.69561309  0.89521018  0.43829053    -0.10600
C12         C  0.66562412  0.88021326  0.46774113     0.03000
C13         C  0.65039101  0.84638164  0.48130633    -0.09200
C14         C  0.66504588  0.82752285  0.46543263     0.05500
C15         C  0.69502665  0.84256326  0.43600644    -0.08600
H16         H  0.70731105  0.92133115  0.42745258     0.11100
H17         H  0.62707060  0.83470426  0.50375809     0.08600
H18         H  0.70628960  0.82794454  0.42344012     0.08500
C19         C  0.31341222  0.17831296  0.73964350     0.05500
C20         C  0.32825061  0.15966053  0.72346279    -0.10600
C21         C  0.35799779  0.17472541  0.69338209     0.03000
C22         C  0.37285650  0.20846027  0.67938963    -0.09200
C23         C  0.35809363  0.22717522  0.69552967     0.05500
C24         C  0.32834025  0.21206617  0.72559800    -0.08600
H25         H  0.31686634  0.13361886  0.73467888     0.11100
H26         H  0.39602257  0.22020076  0.65651068     0.08600
H27         H  0.31702503  0.22658474  0.73846392     0.08500
C28         C  0.54696885  0.54618076  0.59524688     0.04700
C29         C  0.53134580  0.56141803  0.56774067     0.04600
C30         C  0.49743671  0.54261383  0.55449224    -0.15900
C31         C  0.47903443  0.50881286  0.56828605     0.04700
C32         C  0.49467647  0.49355881  0.59564756     0.04600
C33         C  0.52856225  0.51236811  0.60898293    -0.15900
H34         H  0.54065841  0.50065443  0.63004168     0.06700
H35         H  0.48532913  0.55431221  0.53342041     0.06700
C36         C  0.16444799  0.32704101  0.42346513     0.05500
C37         C  0.19823650  0.34252872  0.43770976    -0.10600
C38         C  0.21288523  0.37237478  0.46765065     0.03000
C39         C  0.19375657  0.38671609  0.48339027    -0.09200
C40         C  0.15997755  0.37124829  0.46918826     0.05500
C41         C  0.14530037  0.34138716  0.43924493    -0.08600
H42         H  0.21310657  0.33152115  0.42525177     0.11100
H43         H  0.20517743  0.40996144  0.50624856     0.08600
H44         H  0.11918653  0.32950868  0.42793160     0.08500
C45         C  0.16234631  0.86827747  0.41305934     0.05500
C46         C  0.19618163  0.88679235  0.42719015    -0.10600
C47         C  0.21100195  0.87202711  0.45774430     0.03000
C48         C  0.19197442  0.83872355  0.47402047    -0.09200
C49         C  0.15817068  0.82019106  0.45994260     0.05500
C50         C  0.14336303  0.83497847  0.42947616    -0.08600
H51         H  0.21089234  0.91256443  0.41451639     0.11100
H52         H  0.20344469  0.82725377  0.49753655     0.08600
H53         H  0.11720718  0.82061587  0.41847755     0.08500
C54         C  0.85788413  0.17446373  0.75126064     0.05500
C55         C  0.82430340  0.15585752  0.73566498    -0.10600
C56         C  0.80959847  0.17090939  0.70557482     0.03000
C57         C  0.82850731  0.20455648  0.69113091    -0.09200
C58         C  0.86206703  0.22315762  0.70664510     0.05500
C59         C  0.87673524  0.20810789  0.73674120    -0.08600
H60         H  0.80967554  0.12983925  0.74701420     0.11100
H61         H  0.81712131  0.21624922  0.66799092     0.08600
H62         H  0.90269872  0.22252554  0.74887305     0.08500
C63         C  0.99324341  0.53931246  0.59438694     0.04700
C64         C  0.02501892  0.55561191  0.56994960     0.04600
C65         C  0.04127690  0.53770273  0.55808574    -0.15900
C66         C  0.02615532  0.50372159  0.57034514     0.04700
C67         C  0.99435250  0.48740560  0.59464405     0.04600
C68         C  0.97810053  0.50531507  0.60655164    -0.15900
H69         H  0.95362733  0.49277519  0.62539354     0.06700
H70         H  0.06577335  0.55024865  0.53932188     0.06700
C71         C  0.54422710  0.04140243  0.59612023     0.04700
C72         C  0.52853410  0.00931069  0.57259122     0.04600
C73         C  0.49435956  0.99312974  0.56087326    -0.15900
C74         C  0.47567796  0.00867698  0.57212734     0.04700
C75         C  0.49140719  0.04087764  0.59533889     0.04600
C76         C  0.52557293  0.05699152  0.60731584    -0.15900
H77         H  0.53768749  0.08174880  0.62531280     0.06700
H78         H  0.48228698  0.96840442  0.54275082     0.06700
Zn79       Zn  0.03581499  0.07121327  0.05789168     1.49700
Zn80       Zn  0.03629357  0.00243310  0.05510738     1.49400
Zn81       Zn  0.01313223  0.02423073  0.16444777     1.49100
Zn82       Zn  0.96673433  0.00188388  0.05701569     1.49500
O83         O  0.01297130  0.02492630  0.08364773    -1.81800
O84         O  0.07573174  0.08128871  0.01108320    -0.72400
O85         O  0.05239402  0.98511764  0.11695580    -0.72200
O86         O  0.03744073  0.07087282  0.19560979    -0.71700
O87         O  0.07620415  0.03352013  0.00935341    -0.72400
O88         O  0.05218407  0.10333396  0.12166641    -0.72000
O89         O  0.03577782  0.99961402  0.19282695    -0.72600
O90         O  0.93409671  0.98583241  0.12021748    -0.72000
O91         O  0.00586372  0.96306920  0.00758185    -0.72700
O92         O  0.96630005  0.00155433  0.19480654    -0.72100
O93         O  0.95729982  0.96201331  0.01011957    -0.72600
O94         O  0.95743175  0.03247755  0.01094101    -0.72500
O95         O  0.00519474  0.08072610  0.01229479    -0.72300
C96         C  0.08850768  0.06387600  0.99565463     0.79500
C97         C  0.05014045  0.98571630  0.16901009     0.80000
C98         C  0.05121627  0.09951223  0.17349523     0.79000
C99         C  0.93770114  0.98762800  0.17219096     0.79300
C100        C  0.97535123  0.95006981  0.99405030     0.80500
C101        C  0.97501300  0.06287848  0.99720429     0.79500
C102        C  0.93214565  0.10411388  0.90326181     0.19400
C103        C  0.95162622  0.13507879  0.87803726    -0.09700
C104        C  0.93644307  0.14910322  0.84673070    -0.10600
C105        C  0.90172779  0.13221795  0.84052770     0.21000
C106        C  0.88226992  0.10123123  0.86565658    -0.12600
C107        C  0.89744639  0.08721270  0.89695031    -0.10900
C108        C  0.88606329  0.14675887  0.80873772     0.01900
C109        C  0.87304029  0.15915985  0.78240773    -0.30900
C110        C  0.94765622  0.08975508  0.93591380     0.03300
C111        C  0.96028184  0.07753653  0.96370898    -0.32600
H112        H  0.97847570  0.14837523  0.88267709     0.14400
H113        H  0.95172427  0.17309349  0.82750606     0.14200
H114        H  0.85541228  0.08797582  0.86116332     0.14000
H115        H  0.88214683  0.06326972  0.91630636     0.13100
C116        C  0.64343886  0.08870624  0.63446718     0.19400
C117        C  0.66474864  0.07978612  0.60799750    -0.09700
C118        C  0.69857038  0.09570325  0.62206452    -0.10600
C119        C  0.71117488  0.12055407  0.66270012     0.21000
C120        C  0.68983368  0.12941166  0.68913662    -0.12600
C121        C  0.65606461  0.11353196  0.67506856    -0.10900
C122        C  0.74596963  0.13721202  0.67718089     0.01900
C123        C  0.77501246  0.15206953  0.68999126    -0.30900
C124        C  0.60862014  0.07236007  0.62031685     0.03300
C125        C  0.57934848  0.05857923  0.60917009    -0.32600
H126        H  0.65523239  0.06057753  0.57658762     0.14400
H127        H  0.71484592  0.08867173  0.60131305     0.14200
H128        H  0.69930515  0.14860338  0.72056467     0.14000
H129        H  0.63981487  0.12059709  0.69582854     0.13100
C130        C  0.91436843  0.32137869  0.66451642     0.19400
C131        C  0.90543583  0.34328695  0.68863156    -0.09700
C132        C  0.92200652  0.37687037  0.67379605    -0.10600
C133        C  0.94758788  0.38872485  0.63475211     0.21000
C134        C  0.95660551  0.36685164  0.61065421    -0.12600
C135        C  0.94002150  0.33322197  0.62553125    -0.10900
C136        C  0.96442814  0.42330823  0.61959572     0.01900
C137        C  0.97809018  0.45243059  0.60792266    -0.30900
C138        C  0.89683385  0.28672968  0.67933935     0.03300
C139        C  0.88133798  0.25774100  0.69186208    -0.32600
H140        H  0.88560861  0.33438778  0.71874126     0.14400
H141        H  0.91483893  0.39356769  0.69266276     0.14200
H142        H  0.97632426  0.37575300  0.58035513     0.14000
H143        H  0.94708980  0.31647787  0.60655791     0.13100
C144        C  0.11952419  0.91151714  0.32353194     0.19400
C145        C  0.13859976  0.94505130  0.30850723    -0.09700
C146        C  0.12428862  0.96004860  0.27748043    -0.10600
C147        C  0.09082440  0.94159198  0.26132443     0.21000
C148        C  0.07171684  0.90805438  0.27639614    -0.12600
C149        C  0.08603648  0.89304849  0.30744132    -0.10900
C150        C  0.07620970  0.95705320  0.22912482     0.01900
C151        C  0.06423779  0.97015441  0.20187971    -0.30900
C152        C  0.13438316  0.89610829  0.35523409     0.03300
C153        C  0.14709589  0.88340970  0.38164123    -0.32600
H154        H  0.16451146  0.95956404  0.32070074     0.14400
H155        H  0.13930348  0.98598396  0.26603976     0.14200
H156        H  0.04582268  0.89353473  0.26410712     0.14000
H157        H  0.07105164  0.86709710  0.31880988     0.13100
C158        C  0.37664708  0.95859422  0.53232137     0.19400
C159        C  0.36524331  0.93267459  0.49370424    -0.09700
C160        C  0.33164136  0.91543542  0.47840174    -0.10600
C161        C  0.30926402  0.92402885  0.50163055     0.21000
C162        C  0.32063190  0.94987050  0.54042930    -0.12600
C163        C  0.35426289  0.96713288  0.55572933    -0.10900
C164        C  0.27468428  0.90625791  0.48574570     0.01900
C165        C  0.24570121  0.89096002  0.47263223    -0.30900
C166        C  0.41133389  0.97650433  0.54745867     0.03300
C167        C  0.44055207  0.99126525  0.55910799    -0.32600
H168        H  0.38232814  0.92586211  0.47535553     0.14400
H169        H  0.32312945  0.89546828  0.44844798     0.14200
H170        H  0.30354273  0.95668959  0.55872904     0.14000
H171        H  0.36280988  0.98713756  0.58561974     0.13100
C172        C  0.07236990  0.65460703  0.53168980     0.19400
C173        C  0.10450752  0.66932016  0.50950017    -0.09700
C174        C  0.12129950  0.70307521  0.49572338    -0.10600
C175        C  0.10605314  0.72230825  0.50408970     0.21000
C176        C  0.07391542  0.70763495  0.52638223    -0.12600
C177        C  0.05708621  0.67382219  0.54010466    -0.10900
C178        C  0.12343397  0.75698087  0.48938265     0.01900
C179        C  0.13885777  0.78587192  0.47624510    -0.30900
C180        C  0.05519009  0.61981387  0.54558129     0.03300
C181        C  0.04134474  0.59061152  0.55677990    -0.32600
H182        H  0.11654645  0.65469444  0.50277974     0.14400
H183        H  0.14612262  0.71415805  0.47848161     0.14200
H184        H  0.06187568  0.72226771  0.53297713     0.14000
H185        H  0.03220537  0.66267457  0.55705514     0.13100
C186        C  0.09355021  0.18304350  0.26924250     0.19400
C187        C  0.07345877  0.19088515  0.30183887    -0.09700
C188        C  0.08787735  0.22002081  0.33349038    -0.10600
C189        C  0.12243927  0.24142035  0.33265516     0.21000
C190        C  0.14254386  0.23358444  0.30007745    -0.12600
C191        C  0.12812265  0.20444402  0.26841696    -0.10900
C192        C  0.13722152  0.27144910  0.36501800     0.01900
C193        C  0.14957561  0.29670613  0.39189568    -0.30900
C194        C  0.07866314  0.15323857  0.23626946     0.03300
C195        C  0.06612429  0.12851474  0.20804018    -0.32600
H196        H  0.04669450  0.17453612  0.30268705     0.14400
H197        H  0.07211514  0.22588073  0.35849854     0.14200
H198        H  0.16929740  0.24999428  0.29910390     0.14000
H199        H  0.14387406  0.19864013  0.24326930     0.13100
C200        C  0.07509444  0.45312816  0.53492072     0.19400
C201        C  0.10354650  0.46781916  0.50171295    -0.09700
C202        C  0.12012407  0.45040792  0.48906270    -0.10600
C203        C  0.10830781  0.41823250  0.50954143     0.21000
C204        C  0.07988624  0.40354154  0.54287758    -0.12600
C205        C  0.06330336  0.42097908  0.55556625    -0.10900
C206        C  0.12545941  0.40045890  0.49624233     0.01900
C207        C  0.14069570  0.38655739  0.48425399    -0.30900
C208        C  0.05798464  0.47102334  0.54754678     0.03300
C209        C  0.04363680  0.48605185  0.55784230    -0.32600
H210        H  0.11286236  0.49266820  0.48557696     0.12800
H211        H  0.14210061  0.46199402  0.46329982     0.14200
H212        H  0.07057401  0.37868513  0.55896590     0.14000
H213        H  0.04134507  0.40943365  0.58136353     0.13100
C214        C  0.37995840  0.45639649  0.53055050     0.19400
C215        C  0.36345480  0.42164878  0.52541845    -0.09700
C216        C  0.32942760  0.40398386  0.51300203    -0.10600
C217        C  0.31185087  0.42103823  0.50568203     0.21000
C218        C  0.32836889  0.45576851  0.51088293    -0.12600
C219        C  0.36235944  0.47341422  0.52330942    -0.10900
C220        C  0.27692994  0.40304334  0.49262128     0.01900
C221        C  0.24769689  0.38867990  0.48139653    -0.30900
C222        C  0.41490349  0.47465677  0.54330842     0.03300
C223        C  0.44413830  0.49025473  0.55433918    -0.32600
H224        H  0.37687038  0.40827389  0.53091585     0.14400
H225        H  0.31686749  0.37712447  0.50904428     0.14200
H226        H  0.31499110  0.46917531  0.50528754     0.14000
H227        H  0.37490668  0.50027693  0.52722862     0.13100
C228        C  0.22878535  0.13544173  0.83287273     0.19400
C229        C  0.21789386  0.15547123  0.85835673    -0.09700
C230        C  0.18934185  0.14101048  0.89128233    -0.10600
C231        C  0.17154144  0.10644487  0.89890889     0.21000
C232        C  0.18240904  0.08641354  0.87336026    -0.12600
C233        C  0.21096021  0.10087397  0.84043718    -0.10900
C234        C  0.14223750  0.09154682  0.93303463     0.01900
C235        C  0.11771790  0.07895499  0.96164913    -0.30900
C236        C  0.25833360  0.15037006  0.79933689     0.03300
C237        C  0.28328634  0.16301600  0.77175553    -0.32600
H238        H  0.23148921  0.18222602  0.85285322     0.14400
H239        H  0.18118989  0.15675402  0.91082955     0.14200
H240        H  0.16885944  0.05966623  0.87896233     0.14000
H241        H  0.21915724  0.08513922  0.82099254     0.13100
C242        C  0.44243764  0.39462300  0.63485480     0.19400
C243        C  0.40753556  0.37730551  0.63264129    -0.09700
C244        C  0.38965954  0.34329741  0.64495041    -0.10600
C245        C  0.40661438  0.32647164  0.65954930     0.21000
C246        C  0.44150064  0.34383550  0.66193100    -0.12600
C247        C  0.45936097  0.37780981  0.64960789    -0.10900
C248        C  0.38838836  0.29142426  0.67190299     0.01900
C249        C  0.37404975  0.26209490  0.68245524    -0.30900
C250        C  0.46090752  0.42953153  0.62164356     0.03300
C251        C  0.47641897  0.45870341  0.61013494    -0.32600
H252        H  0.39418639  0.39005826  0.62134279     0.14400
H253        H  0.36269530  0.33014369  0.64299082     0.14200
H254        H  0.45487674  0.33109864  0.67317714     0.14000
H255        H  0.48632978  0.39093296  0.65145067     0.13100
C256        C  0.43981448  0.08932166  0.62821346     0.19400
C257        C  0.45576454  0.12403274  0.62324816    -0.09700
C258        C  0.43853181  0.14089612  0.63541685    -0.10600
C259        C  0.40525801  0.12314094  0.65260850     0.21000
C260        C  0.38924531  0.08840268  0.65732069    -0.12600
C261        C  0.40648233  0.07152772  0.64511925    -0.10900
C262        C  0.38779185  0.14065466  0.66612296     0.01900
C263        C  0.37382003  0.15586848  0.67813785    -0.30900
C264        C  0.45776034  0.07206820  0.61649028     0.03300
C265        C  0.47302796  0.05782772  0.60691139    -0.32600
H266        H  0.48152363  0.13804539  0.61022640     0.14400
H267        H  0.45117897  0.16775471  0.63168142     0.14200
H268        H  0.36354310  0.07441753  0.67063064     0.14000
H269        H  0.39390051  0.04468493  0.64909590     0.13100
C270        C  0.85428011  0.94687533  0.26815991     0.19400
C271        C  0.83270469  0.91233510  0.26764390    -0.09700
C272        C  0.80373181  0.89820804  0.29955451    -0.10600
C273        C  0.79617209  0.91854135  0.33216300     0.21000
C274        C  0.81779452  0.95306991  0.33282394    -0.12600
C275        C  0.84677386  0.96719991  0.30090949    -0.10900
C276        C  0.76615223  0.90400363  0.36455592     0.01900
C277        C  0.74082612  0.89160806  0.39120793    -0.30900
C278        C  0.88391686  0.96143177  0.23477752     0.03300
C279        C  0.90854802  0.97346005  0.20638969    -0.32600
H280        H  0.83822521  0.89636547  0.24248064     0.14400
H281        H  0.78720125  0.87148391  0.29868373     0.14200
H282        H  0.81220696  0.96904276  0.35784561     0.14000
H283        H  0.86324656  0.99393375  0.30163661     0.13100
C284        C  0.58174785  0.96323239  0.53483150     0.19400
C285        C  0.61163991  0.97198292  0.56227072    -0.09700
C286        C  0.62961658  0.95600095  0.54901427    -0.10600
C287        C  0.61778336  0.93124875  0.50822470     0.21000
C288        C  0.58799302  0.92266646  0.48063924    -0.12600
C289        C  0.57002961  0.93861273  0.49389950    -0.10900
C290        C  0.63585881  0.91432582  0.49489809     0.01900
C291        C  0.64996483  0.89923798  0.48291134    -0.30900
C292        C  0.56299853  0.97935293  0.54866272     0.03300
C293        C  0.54714137  0.99277224  0.55974337    -0.32600
H294        H  0.62095932  0.99103450  0.59393537     0.14400
H295        H  0.65261532  0.96284259  0.57062358     0.14200
H296        H  0.57860111  0.90357275  0.44905104     0.14000
H297        H  0.54697745  0.93168238  0.47238359     0.13100
C298        C  0.58274942  0.66014644  0.52695887     0.19400
C299        C  0.61752757  0.67851074  0.53197723    -0.09700
C300        C  0.63477495  0.71248076  0.51928086    -0.10600
C301        C  0.61731606  0.72822535  0.50150873     0.21000
C302        C  0.58256938  0.70980137  0.49622437    -0.12600
C303        C  0.56533698  0.67586329  0.50891381    -0.10900
C304        C  0.63489129  0.76326633  0.48902580     0.01900
C305        C  0.64895043  0.79258873  0.47846005    -0.30900
C306        C  0.56485842  0.62531760  0.54085093     0.03300
C307        C  0.54960961  0.59621623  0.55289830    -0.32600
H308        H  0.63125475  0.66661703  0.54586614     0.14400
H309        H  0.66164191  0.72646258  0.52349933     0.14200
H310        H  0.56880714  0.72169394  0.48250833     0.14000
H311        H  0.53845702  0.66192413  0.50488218     0.13100
C312        C  0.93429974  0.86635314  0.89826266     0.19400
C313        C  0.94881014  0.84609093  0.89720809    -0.09700
C314        C  0.93449069  0.81690575  0.86558293    -0.10600
C315        C  0.90559145  0.80784370  0.83485392     0.21000
C316        C  0.89116309  0.82817418  0.83573947    -0.12600
C317        C  0.90548001  0.85735410  0.86735739    -0.10900
C318        C  0.89058391  0.77760410  0.80280477     0.01900
C319        C  0.87767720  0.75219876  0.77617414    -0.30900
C320        C  0.94876161  0.89614294  0.93145367     0.03300
C321        C  0.96082513  0.92087750  0.95976248    -0.32600
H322        H  0.97108273  0.85278358  0.92095825     0.14400
H323        H  0.94585939  0.80137867  0.86523598     0.14200
H324        H  0.86881342  0.82141270  0.81216779     0.14000
H325        H  0.89402975  0.87280647  0.86787180     0.13100
C326        C  0.64590664  0.59733235  0.63441373     0.19400
C327        C  0.66312124  0.63207024  0.63994451    -0.09700
C328        C  0.69707171  0.64897228  0.65303277    -0.10600
C329        C  0.71388756  0.63118074  0.66062965     0.21000
C330        C  0.69665885  0.59645192  0.65499777    -0.12600
C331        C  0.66273668  0.57956403  0.64192218    -0.10900
C332        C  0.74874470  0.64843372  0.67441675     0.01900
C333        C  0.77791210  0.66216852  0.68614255    -0.30900
C334        C  0.61103009  0.57984917  0.62094387     0.03300
C335        C  0.58184154  0.56468600  0.60942072    -0.32600
H336        H  0.65031896  0.64603207  0.63420470     0.14400
H337        H  0.71017088  0.67583226  0.65729171     0.14200
H338        H  0.70942865  0.58246037  0.66077568     0.14000
H339        H  0.64964337  0.55269852  0.63769504     0.13100
C340        C  0.91362908  0.62720101  0.65622908     0.19400
C341        C  0.89486657  0.59258599  0.64929271    -0.09700
C342        C  0.91074282  0.57448565  0.63652492    -0.10600
C343        C  0.94543976  0.59093155  0.63070678     0.21000
C344        C  0.96419318  0.62554600  0.63752184    -0.12600
C345        C  0.94831452  0.64365857  0.65018395    -0.10900
C346        C  0.96182655  0.57232769  0.61800480     0.01900
C347        C  0.97588175  0.55705091  0.60734909    -0.30900
C348        C  0.89729199  0.64567622  0.67033923     0.03300
C349        C  0.88293448  0.66039738  0.68287216    -0.32600
H350        H  0.86803307  0.57961332  0.65395801     0.14400
H351        H  0.89601637  0.54771982  0.63138147     0.14200
H352        H  0.99104120  0.63846689  0.63335425     0.14000
H353        H  0.96306022  0.67040445  0.65555536     0.13100
loop_ 
_geom_bond_atom_site_label_1 
_geom_bond_atom_site_label_2 
_geom_bond_distance 
_geom_bond_site_symmetry_2 
_ccdc_geom_bond_type 
C1            C2   1.402       .  A
C1            C6   1.402       .  A
C1          C319   1.441       .  S
C2            C3   1.401       .  A
C2            H7   1.085       .  S
C3            C4   1.400       .  A
C3          C333   1.438       .  S
C4            C5   1.400       .  A
C4            H8   1.085       .  S
C5            C6   1.402       .  A
C5          C349   1.439       .  S
C6            H9   1.084       .  S
C10          C11   1.402       .  A
C10          C15   1.402       .  A
C10         C277   1.441       .  S
C11          C12   1.402       .  A
C11          H16   1.085       .  S
C12          C13   1.402       .  A
C12         C291   1.441       .  S
C13          C14   1.401       .  A
C13          H17   1.085       .  S
C14          C15   1.401       .  A
C14         C305   1.441       .  S
C15          H18   1.085       .  S
C19          C20   1.402       .  A
C19          C24   1.402       .  A
C19         C237   1.441       .  S
C20          C21   1.402       .  A
C20          H25   1.085       .  S
C21          C22   1.401       .  A
C21         C263   1.441       .  S
C22          C23   1.401       .  A
C22          H26   1.085       .  S
C23          C24   1.402       .  A
C23         C249   1.441       .  S
C24          H27   1.085       .  S
C28          C29   1.409       .  A
C28          C33   1.402       .  A
C28         C335   1.442       .  S
C29          C30   1.401       .  A
C29         C307   1.445       .  S
C30          C31   1.401       .  A
C30          H35   1.085       .  S
C31          C32   1.408       .  A
C31         C223   1.442       .  S
C32          C33   1.400       .  A
C32         C251   1.445       .  S
C33          H34   1.085       .  S
C36          C37   1.401       .  A
C36          C41   1.401       .  A
C36         C193   1.438       .  S
C37          C38   1.400       .  A
C37          H42   1.085       .  S
C38          C39   1.400       .  A
C38         C221   1.437       .  S
C39          C40   1.400       .  A
C39          H43   1.085       .  S
C40          C41   1.401       .  A
C40         C207   1.438       .  S
C41          H44   1.085       .  S
C45          C46   1.402       .  A
C45          C50   1.401       .  A
C45         C153   1.440       .  S
C46          C47   1.402       .  A
C46          H51   1.085       .  S
C47          C48   1.401       .  A
C47         C165   1.440       .  S
C48          C49   1.401       .  A
C48          H52   1.085       .  S
C49          C50   1.401       .  A
C49         C179   1.439       .  S
C50          H53   1.085       .  S
C54          C55   1.402       .  A
C54          C59   1.401       .  A
C54         C109   1.439       .  S
C55          C56   1.402       .  A
C55          H60   1.085       .  S
C56          C57   1.401       .  A
C56         C123   1.440       .  S
C57          C58   1.401       .  A
C57          H61   1.085       .  S
C58          C59   1.401       .  A
C58         C139   1.439       .  S
C59          H62   1.085       .  S
C63          C64   1.408   1_655  A
C63          C68   1.401       .  A
C63         C347   1.442       .  S
C64          C65   1.401       .  A
C64         C181   1.444       .  S
C65          C66   1.401       .  A
C65          H70   1.085       .  S
C66          C67   1.408   1_455  A
C66         C209   1.442       .  S
C67          C68   1.401       .  A
C67         C137   1.444       .  S
C68          H69   1.085       .  S
C71          C72   1.408       .  A
C71          C76   1.402       .  A
C71         C125   1.445       .  S
C72          C73   1.401   1_545  A
C72         C293   1.444   1_545  S
C73          C74   1.402   1_565  A
C73          H78   1.085       .  S
C74          C75   1.409       .  A
C74         C167   1.444   1_545  S
C75          C76   1.402       .  A
C75         C265   1.445       .  S
C76          H77   1.085       .  S
Zn79         O83   1.964       .  S
Zn79         O84   2.019       .  S
Zn79         O88   2.014       .  S
Zn79         O95   2.016       .  S
Zn80         O83   1.964       .  S
Zn80         O85   2.018   1_545  S
Zn80         O87   2.021       .  S
Zn80         O91   2.017   1_545  S
Zn81         O83   1.966       .  S
Zn81         O86   2.019       .  S
Zn81         O89   2.020   1_545  S
Zn81         O92   2.021   1_455  S
Zn82         O83   1.965   1_655  S
Zn82         O90   2.022   1_545  S
Zn82         O93   2.022   1_545  S
Zn82         O94   2.019       .  S
O84          C96   1.272   1_554  A
O85          C97   1.272       .  A
O86          C98   1.272       .  A
O87          C96   1.272   1_554  A
O88          C98   1.272       .  A
O89          C97   1.272       .  A
O90          C99   1.272       .  A
O91         C100   1.272   1_454  A
O92          C99   1.272   1_545  A
O93         C100   1.272   1_554  A
O94         C101   1.272   1_554  A
O95         C101   1.272   1_454  A
C96         C235   1.436       .  S
C97         C151   1.436       .  S
C98         C195   1.434       .  S
C99         C279   1.437       .  S
C100        C321   1.436       .  S
C101        C111   1.435       .  S
C102        C103   1.401       .  A
C102        C107   1.401       .  A
C102        C110   1.439       .  S
C103        C104   1.399       .  A
C103        H112   1.083       .  S
C104        C105   1.401       .  A
C104        H113   1.084       .  S
C105        C106   1.401       .  A
C105        C108   1.439       .  S
C106        C107   1.399       .  A
C106        H114   1.083       .  S
C107        H115   1.083       .  S
C108        C109   1.206       .  T
C110        C111   1.206       .  T
C116        C117   1.402       .  A
C116        C121   1.401       .  A
C116        C124   1.440       .  S
C117        C118   1.400       .  A
C117        H126   1.084       .  S
C118        C119   1.402       .  A
C118        H127   1.083       .  S
C119        C120   1.401       .  A
C119        C122   1.440       .  S
C120        C121   1.398       .  A
C120        H128   1.083       .  S
C121        H129   1.083       .  S
C122        C123   1.206       .  T
C124        C125   1.206       .  T
C130        C131   1.401       .  A
C130        C135   1.402       .  A
C130        C138   1.439       .  S
C131        C132   1.398       .  A
C131        H140   1.084       .  S
C132        C133   1.401       .  A
C132        H141   1.083       .  S
C133        C134   1.402       .  A
C133        C136   1.439       .  S
C134        C135   1.400       .  A
C134        H142   1.083       .  S
C135        H143   1.083       .  S
C136        C137   1.205       .  T
C138        C139   1.206       .  T
C144        C145   1.401       .  A
C144        C149   1.402       .  A
C144        C152   1.440       .  S
C145        C146   1.399       .  A
C145        H154   1.083       .  S
C146        C147   1.401       .  A
C146        H155   1.083       .  S
C147        C148   1.402       .  A
C147        C150   1.440       .  S
C148        C149   1.400       .  A
C148        H156   1.083       .  S
C149        H157   1.083       .  S
C150        C151   1.206       .  T
C152        C153   1.206       .  T
C158        C159   1.401       .  A
C158        C163   1.401       .  A
C158        C166   1.440       .  S
C159        C160   1.399       .  A
C159        H168   1.083       .  S
C160        C161   1.401       .  A
C160        H169   1.083       .  S
C161        C162   1.402       .  A
C161        C164   1.440       .  S
C162        C163   1.400       .  A
C162        H170   1.083       .  S
C163        H171   1.084       .  S
C164        C165   1.206       .  T
C166        C167   1.206       .  T
C172        C173   1.401       .  A
C172        C177   1.402       .  A
C172        C180   1.439       .  S
C173        C174   1.398       .  A
C173        H182   1.084       .  S
C174        C175   1.401       .  A
C174        H183   1.083       .  S
C175        C176   1.402       .  A
C175        C178   1.439       .  S
C176        C177   1.400       .  A
C176        H184   1.083       .  S
C177        H185   1.083       .  S
C178        C179   1.206       .  T
C180        C181   1.206       .  T
C186        C187   1.401       .  A
C186        C191   1.401       .  A
C186        C194   1.438       .  S
C187        C188   1.398       .  A
C187        H196   1.083       .  S
C188        C189   1.401       .  A
C188        H197   1.083       .  S
C189        C190   1.401       .  A
C189        C192   1.438       .  S
C190        C191   1.398       .  A
C190        H198   1.084       .  S
C191        H199   1.083       .  S
C192        C193   1.205       .  T
C194        C195   1.205       .  T
C200        C201   1.400       .  A
C200        C205   1.401       .  A
C200        C208   1.437       .  S
C201        C202   1.397       .  A
C201        H210   1.083       .  S
C202        C203   1.401       .  A
C202        H211   1.084       .  S
C203        C204   1.401       .  A
C203        C206   1.437       .  S
C204        C205   1.399       .  A
C204        H212   1.083       .  S
C205        H213   1.083       .  S
C206        C207   1.205       .  T
C208        C209   1.204       .  T
C214        C215   1.401       .  A
C214        C219   1.400       .  A
C214        C222   1.437       .  S
C215        C216   1.399       .  A
C215        H224   1.083       .  S
C216        C217   1.401       .  A
C216        H225   1.083       .  S
C217        C218   1.401       .  A
C217        C220   1.437       .  S
C218        C219   1.397       .  A
C218        H226   1.083       .  S
C219        H227   1.083       .  S
C220        C221   1.204       .  T
C222        C223   1.204       .  T
C228        C229   1.402       .  A
C228        C233   1.401       .  A
C228        C236   1.441       .  S
C229        C230   1.400       .  A
C229        H238   1.083       .  S
C230        C231   1.402       .  A
C230        H239   1.083       .  S
C231        C232   1.402       .  A
C231        C234   1.441       .  S
C232        C233   1.399       .  A
C232        H240   1.083       .  S
C233        H241   1.083       .  S
C234        C235   1.207       .  T
C236        C237   1.207       .  T
C242        C243   1.402       .  A
C242        C247   1.401       .  A
C242        C250   1.440       .  S
C243        C244   1.400       .  A
C243        H252   1.083       .  S
C244        C245   1.402       .  A
C244        H253   1.083       .  S
C245        C246   1.401       .  A
C245        C248   1.441       .  S
C246        C247   1.399       .  A
C246        H254   1.083       .  S
C247        H255   1.083       .  S
C248        C249   1.207       .  T
C250        C251   1.206       .  T
C256        C257   1.401       .  A
C256        C261   1.402       .  A
C256        C264   1.440       .  S
C257        C258   1.399       .  A
C257        H266   1.083       .  S
C258        C259   1.401       .  A
C258        H267   1.083       .  S
C259        C260   1.402       .  A
C259        C262   1.441       .  S
C260        C261   1.400       .  A
C260        H268   1.083       .  S
C261        H269   1.083       .  S
C262        C263   1.207       .  T
C264        C265   1.206       .  T
C270        C271   1.402       .  A
C270        C275   1.402       .  A
C270        C278   1.442       .  S
C271        C272   1.400       .  A
C271        H280   1.083       .  S
C272        C273   1.402       .  A
C272        H281   1.083       .  S
C273        C274   1.402       .  A
C273        C276   1.441       .  S
C274        C275   1.400       .  A
C274        H282   1.083       .  S
C275        H283   1.083       .  S
C276        C277   1.207       .  T
C278        C279   1.207       .  T
C284        C285   1.402       .  A
C284        C289   1.401       .  A
C284        C292   1.439       .  S
C285        C286   1.400       .  A
C285        H294   1.084       .  S
C286        C287   1.402       .  A
C286        H295   1.083       .  S
C287        C288   1.401       .  A
C287        C290   1.441       .  S
C288        C289   1.398       .  A
C288        H296   1.083       .  S
C289        H297   1.084       .  S
C290        C291   1.207       .  T
C292        C293   1.206       .  T
C298        C299   1.402       .  A
C298        C303   1.401       .  A
C298        C306   1.441       .  S
C299        C300   1.400       .  A
C299        H308   1.083       .  S
C300        C301   1.402       .  A
C300        H309   1.083       .  S
C301        C302   1.401       .  A
C301        C304   1.441       .  S
C302        C303   1.399       .  A
C302        H310   1.083       .  S
C303        H311   1.083       .  S
C304        C305   1.207       .  T
C306        C307   1.207       .  T
C312        C313   1.402       .  A
C312        C317   1.401       .  A
C312        C320   1.441       .  S
C313        C314   1.400       .  A
C313        H322   1.083       .  S
C314        C315   1.401       .  A
C314        H323   1.083       .  S
C315        C316   1.401       .  A
C315        C318   1.441       .  S
C316        C317   1.399       .  A
C316        H324   1.083       .  S
C317        H325   1.083       .  S
C318        C319   1.206       .  T
C320        C321   1.207       .  T
C326        C327   1.401       .  A
C326        C331   1.401       .  A
C326        C334   1.437       .  S
C327        C328   1.399       .  A
C327        H336   1.083       .  S
C328        C329   1.401       .  A
C328        H337   1.083       .  S
C329        C330   1.401       .  A
C329        C332   1.438       .  S
C330        C331   1.398       .  A
C330        H338   1.084       .  S
C331        H339   1.084       .  S
C332        C333   1.205       .  T
C334        C335   1.204       .  T
C340        C341   1.401       .  A
C340        C345   1.401       .  A
C340        C348   1.438       .  S
C341        C342   1.398       .  A
C341        H350   1.083       .  S
C342        C343   1.401       .  A
C342        H351   1.084       .  S
C343        C344   1.401       .  A
C343        C346   1.438       .  S
C344        C345   1.398       .  A
C344        H352   1.083       .  S
C345        H353   1.083       .  S
C346        C347   1.205       .  T
C348        C349   1.205       .  T
