geometry optimzed in LAMMPS
_audit_creation_date              2020-11-30 
_audit_creation_method            'lammps2cif' 
_symmetry_space_group_name_H-M    'P1' 
_symmetry_Int_Tables_number       1 
_symmetry_cell_setting            triclinic 
loop_ 
_symmetry_equiv_pos_as_xyz 
  x,y,z 
_cell_length_a                    29.96603 
_cell_length_b                    29.94580963953457 
_cell_length_c                    25.136984136311455 
_cell_angle_alpha                 90.08141419136888 
_cell_angle_beta                  89.92643269494643 
_cell_angle_gamma                 119.97570442601541 
loop_ 
_atom_site_label 
_atom_site_type_symbol 
_atom_site_fract_x 
_atom_site_fract_y 
_atom_site_fract_z 
_atom_site_charge 
C1          C  0.45832916  0.43310203  0.30031250     0.02900
C2          C  0.49555669  0.47688089  0.32755076    -0.13200
C3          C  0.53282189  0.51985177  0.29947520     0.00400
C4          C  0.53166918  0.51911761  0.24370520    -0.11700
C5          C  0.49648485  0.47472968  0.21510521     0.02900
C6          C  0.46004618  0.43169725  0.24447407    -0.11200
H7          H  0.49528064  0.47762038  0.37062713     0.08500
H8          H  0.55817175  0.55417760  0.22321454     0.06100
H9          H  0.43305191  0.39635794  0.22468472     0.05900
C10         C  0.45805560  0.43703949  0.06901603     0.02900
C11         C  0.50249636  0.47450832  0.04293046    -0.13200
C12         C  0.54486508  0.51130266  0.07197753     0.00400
C13         C  0.54324157  0.50902074  0.12766166    -0.11700
C14         C  0.49820678  0.47381126  0.15523375     0.02900
C15         C  0.45542202  0.43816075  0.12485856    -0.11200
H16         H  0.50351164  0.47570014  0.99985421     0.08500
H17         H  0.57799077  0.53498514  0.14891198     0.06100
H18         H  0.41999982  0.41055324  0.14400157     0.05900
C19         C  0.49362058  0.95984935  0.30035357     0.02900
C20         C  0.49575095  0.96416917  0.24453902    -0.13200
C21         C  0.45293378  0.95797206  0.21494707     0.00400
C22         C  0.40818091  0.94806582  0.24320728    -0.11700
C23         C  0.40693959  0.94790919  0.29894184     0.02900
C24         C  0.44949987  0.95296714  0.32719043    -0.11200
H25         H  0.53084316  0.97180691  0.22473483     0.08500
H26         H  0.37338224  0.93984036  0.22239778     0.06100
H27         H  0.44883469  0.95273688  0.37027663     0.05900
C28         C  0.49186026  0.96007379  0.06886922     0.02900
C29         C  0.45536381  0.96868544  0.04303284    -0.13200
C30         C  0.41850201  0.97411843  0.07223467     0.00400
C31         C  0.41990949  0.97307077  0.12795464    -0.11700
C32         C  0.45440889  0.96193231  0.15516718     0.02900
C33         C  0.48996579  0.95486565  0.12455002    -0.11200
H34         H  0.45488188  0.96972827  0.99996992     0.08500
H35         H  0.39391795  0.98164540  0.14955871     0.06100
H36         H  0.51690643  0.94593940  0.14342535     0.05900
C37         C  0.97256905  0.47230008  0.30068454     0.02900
C38         C  0.97025486  0.47120837  0.24483659    -0.13200
C39         C  0.97873512  0.43611917  0.21502759     0.00400
C40         C  0.98848679  0.40117124  0.24331779    -0.11700
C41         C  0.98669601  0.39887976  0.29911189     0.02900
C42         C  0.97964745  0.43524195  0.32752404    -0.11200
H43         H  0.96081203  0.49753569  0.22540554     0.08500
H44         H  0.99811603  0.37551352  0.22260833     0.06100
H45         H  0.97966841  0.43472522  0.37058953     0.05900
C46         C  0.97873652  0.47667922  0.06993836     0.02900
C47         C  0.98246816  0.47818035  0.12576728    -0.13200
C48         C  0.97681546  0.43536394  0.15505757     0.00400
C49         C  0.96855053  0.39128861  0.12632828    -0.11700
C50         C  0.96829442  0.39055728  0.07053021     0.02900
C51         C  0.97302454  0.43320392  0.04275434    -0.11200
H52         H  0.98899482  0.51276656  0.14585576     0.08500
H53         H  0.96252379  0.35705639  0.14674429     0.06100
H54         H  0.97176084  0.43229503  0.99968557     0.05900
O55         O  0.01429272  0.84080687  0.74654311    -0.88400
C56         C  0.12220826  0.10229966  0.60678232     1.11700
O57         O  0.97205110  0.90084433  0.68590191    -1.36200
O58         O  0.13123720  0.06888988  0.74377042    -0.89900
O59         O  0.92817933  0.79755560  0.74627819    -0.90500
O60         O  0.91958297  0.90268829  0.79723451    -0.79300
O61         O  0.07407289  0.95443793  0.73596500    -1.01400
C62         C  0.97338597  0.04873805  0.78306530     1.21700
O63         O  0.91933151  0.95555200  0.68562926    -1.36300
Mn64       Mn  0.97262808  0.95464674  0.62829720     1.82100
O65         O  0.97321518  0.00856676  0.79694774    -0.78400
O66         O  0.08788593  0.11173483  0.74482245    -0.87800
C67         C  0.97446996  0.04875141  0.58785316     1.12800
C68         C  0.12319870  0.10386110  0.76218298     1.07500
O69         O  0.91886461  0.90174186  0.57428935    -0.79400
O70         O  0.02682227  0.00834405  0.68541093    -1.33100
O71         O  0.87046514  0.85365769  0.63586561    -0.98600
C72         C  0.82468782  0.95675003  0.76334485     1.06200
Mn73       Mn  0.03175806  0.08170390  0.68533184     1.48600
O74         O  0.81632036  0.91363182  0.74510694    -0.87800
Mn75       Mn  0.90273652  0.82815089  0.68620064     1.49600
O76         O  0.01403648  0.83894764  0.62728802    -0.91600
C77         C  0.06613351  0.95556328  0.78344777     1.19400
C78         C  0.97083494  0.80450339  0.60888490     1.11500
Mn79       Mn  0.97281501  0.95521635  0.74289823     1.81000
O80         O  0.97406780  0.05684360  0.63536976    -0.96800
Mn81       Mn  0.04049517  0.89600723  0.68634950     1.49300
C82         C  0.97125964  0.80616579  0.76490630     1.08000
Mn83       Mn  0.91616255  0.02496689  0.68560730     1.49900
C84         C  0.82473093  0.95682514  0.60801355     1.10900
O85         O  0.87067400  0.85401730  0.73618777    -1.02600
O86         O  0.08803404  0.11143103  0.62540293    -0.92300
C87         C  0.87953116  0.86239006  0.78363694     1.22200
O88         O  0.97396627  0.05727092  0.73557155    -1.03000
O89         O  0.12969129  0.06691515  0.62479987    -0.90400
O90         O  0.86002170  0.99959266  0.62631119    -0.90000
O91         O  0.92794880  0.79710998  0.62674285    -0.90000
Mn92       Mn  0.09943629  0.01160235  0.68507009     1.47900
O93         O  0.97353312  0.00813239  0.57390010    -0.78500
C94         C  0.87846354  0.86197246  0.58832683     1.15200
O95         O  0.02591703  0.95545954  0.79717967    -0.77200
O96         O  0.02521059  0.95335499  0.57409998    -0.76800
Mn97       Mn  0.84600782  0.88707746  0.68578208     1.51100
O98         O  0.85986142  0.99980932  0.74536312    -0.89200
O99         O  0.07325418  0.95308829  0.63566863    -0.96700
O100        O  0.81598074  0.91340875  0.62590539    -0.91700
C101        C  0.06486078  0.95252176  0.58814511     1.13000
C102        C  0.96411111  0.34556825  0.04114463    -0.03500
C103        C  0.99588781  0.35327019  0.99685631    -0.09300
C104        C  0.99348130  0.31128134  0.97003317    -0.17000
C105        C  0.95940152  0.26102007  0.98705911     0.25200
C106        C  0.92716959  0.25279353  0.03072649    -0.18600
C107        C  0.92949795  0.29483276  0.05767442    -0.07500
C108        C  0.95799443  0.21834025  0.95927987    -0.14000
C109        C  0.95949605  0.18574659  0.93246034    -0.13700
C110        C  0.96343749  0.15104625  0.89573181     0.25100
C111        C  0.96303822  0.10658929  0.91366938    -0.19100
C112        C  0.96693752  0.07333491  0.87715479    -0.07600
C113        C  0.97125550  0.08434298  0.82238358    -0.03700
C114        C  0.97211962  0.12938406  0.80497395    -0.09000
C115        C  0.96824917  0.16243057  0.84140799    -0.16600
H116        H  0.02336808  0.39183246  0.98360150     0.11500
H117        H  0.01855242  0.31804424  0.93623212     0.10800
H118        H  0.90040563  0.21399509  0.04400288     0.10700
H119        H  0.90406651  0.28768225  0.09119135     0.11300
H120        H  0.95954301  0.09757053  0.95572108     0.11300
H121        H  0.96613054  0.03890348  0.89166532     0.11300
H122        H  0.97545858  0.13896845  0.76308256     0.11400
H123        H  0.96884246  0.19686397  0.82714866     0.10300
C124        C  0.97171653  0.77390824  0.80939808    -0.03500
C125        C  0.01881255  0.78126357  0.82945355    -0.09300
C126        C  0.01954807  0.74864721  0.86868661    -0.17000
C127        C  0.97334703  0.70839808  0.88870480     0.25200
C128        C  0.92628980  0.70175061  0.87038127    -0.18600
C129        C  0.92541165  0.73434717  0.83106162    -0.07500
C130        C  0.97436078  0.67210772  0.92547712    -0.14000
C131        C  0.97554078  0.63996919  0.95334490    -0.13700
C132        C  0.97635677  0.59943860  0.98328481     0.25100
C133        C  0.94421942  0.54809220  0.96823294    -0.19100
C134        C  0.94520805  0.50842569  0.99635562    -0.07600
C135        C  0.97869339  0.51947513  0.03988872    -0.03700
C136        C  0.01096039  0.57132015  0.05472770    -0.09000
C137        C  0.00972199  0.61101369  0.02659391    -0.16600
H138        H  0.05520173  0.81154009  0.81405346     0.11500
H139        H  0.05618329  0.75414007  0.88255510     0.10800
H140        H  0.89027345  0.67068567  0.88563074     0.10700
H141        H  0.88852265  0.72788101  0.81690315     0.11300
H142        H  0.91823897  0.53867165  0.93478575     0.11300
H143        H  0.91911738  0.46899162  0.98445361     0.11300
H144        H  0.03761305  0.58126850  0.08757324     0.11400
H145        H  0.03498863  0.65069139  0.03840103     0.10300
C146        C  0.97751806  0.08704504  0.54875320    -0.03500
C147        C  0.97900613  0.13231037  0.56666651    -0.09300
C148        C  0.98305393  0.16946330  0.53055382    -0.17000
C149        C  0.98568881  0.16210042  0.47598278     0.25200
C150        C  0.98409360  0.11712681  0.45756187    -0.18600
C151        C  0.98004968  0.07973038  0.49377935    -0.07500
C152        C  0.98962467  0.20092654  0.43950601    -0.14000
C153        C  0.99198147  0.23514935  0.41224082    -0.13700
C154        C  0.99303825  0.27674403  0.38252557     0.25100
C155        C  0.96577837  0.26659893  0.33475150    -0.19100
C156        C  0.96447620  0.30650128  0.30733166    -0.07600
C157        C  0.99043604  0.35723621  0.32734725    -0.03700
C158        C  0.01827324  0.36716864  0.37511730    -0.09000
C159        C  0.01952037  0.32714591  0.40249529    -0.16600
H160        H  0.97723261  0.13917598  0.60872735     0.11500
H161        H  0.98417474  0.20405068  0.54525687     0.10800
H162        H  0.98603547  0.11101932  0.41533545     0.10700
H163        H  0.97912132  0.04532938  0.47886440     0.11300
H164        H  0.94482845  0.22769570  0.31911865     0.11300
H165        H  0.94203580  0.29740621  0.27112110     0.11300
H166        H  0.03908877  0.40583403  0.39126954     0.11400
H167        H  0.04067981  0.33541570  0.43952712     0.10300
C168        C  0.96867399  0.51296367  0.33083506    -0.03500
C169        C  0.93984219  0.50117276  0.37814315    -0.09300
C170        C  0.93850139  0.54016195  0.40759887    -0.17000
C171        C  0.96595040  0.59140444  0.39025059     0.25200
C172        C  0.99417867  0.60341066  0.34287230    -0.18600
C173        C  0.99548996  0.56448523  0.31330517    -0.07500
C174        C  0.96644308  0.63173218  0.42203057    -0.14000
C175        C  0.96739382  0.66461957  0.45059084    -0.13700
C176        C  0.96858233  0.70216004  0.48735431     0.25100
C177        C  0.92255753  0.69888118  0.50436115    -0.19100
C178        C  0.92334170  0.73292507  0.54298277    -0.07600
C179        C  0.97029445  0.77074122  0.56530600    -0.03700
C180        C  0.01649582  0.77466124  0.54678962    -0.09000
C181        C  0.01556965  0.74050198  0.50819005    -0.16600
H182        H  0.91834929  0.46183170  0.39233792     0.11500
H183        H  0.91648106  0.53041079  0.44419758     0.10800
H184        H  0.01577033  0.64294800  0.32916827     0.10700
H185        H  0.01855435  0.57485598  0.27741305     0.11300
H186        H  0.88596317  0.66938928  0.48849511     0.11300
H187        H  0.88708054  0.72902038  0.55596071     0.11300
H188        H  0.05331502  0.80343704  0.56284500     0.11400
H189        H  0.05144970  0.74340946  0.49531782     0.10300
C190        C  0.79089430  0.95649057  0.80663006    -0.03500
C191        C  0.75107508  0.90947422  0.82681114    -0.09300
C192        C  0.71662296  0.90893036  0.86465970    -0.17000
C193        C  0.72153547  0.95525439  0.88310431     0.25200
C194        C  0.76183129  0.00225433  0.86446970    -0.18600
C195        C  0.79640599  0.00293952  0.82657813    -0.07500
C196        C  0.68381891  0.95446239  0.91919544    -0.14000
C197        C  0.65098964  0.95414263  0.94724682    -0.13700
C198        C  0.61112250  0.95525788  0.97821923     0.25100
C199        C  0.59786452  0.99305667  0.96795657    -0.19100
C200        C  0.55889898  0.99428483  0.99730612    -0.07600
C201        C  0.53263319  0.95771961  0.03748572    -0.03700
C202        C  0.54619871  0.91982974  0.04765641    -0.09000
C203        C  0.58516516  0.91855723  0.01804721    -0.16600
H204        H  0.74583187  0.87299253  0.81262146     0.11500
H205        H  0.68558324  0.87234045  0.87880562     0.10800
H206        H  0.76597126  0.03836188  0.87850011     0.10700
H207        H  0.82672982  0.03978099  0.81214673     0.11300
H208        H  0.61770559  0.02165633  0.93726634     0.11300
H209        H  0.54973220  0.02429562  0.98908649     0.11300
H210        H  0.52629817  0.89092204  0.07801887     0.11400
H211        H  0.59496678  0.88896243  0.02613745     0.10300
C212        C  0.37687147  0.97841022  0.04478328    -0.03500
C213        C  0.32588731  0.95055202  0.06376894    -0.09300
C214        C  0.28586731  0.95170787  0.03650750    -0.17000
C215        C  0.29614076  0.98074583  0.98994197     0.25200
C216        C  0.34684079  0.00939233  0.97122520    -0.18600
C217        C  0.38699049  0.00826241  0.99843667    -0.07500
C218        C  0.25434903  0.97877958  0.95979352    -0.14000
C219        C  0.21970082  0.97503385  0.93224523    -0.13700
C220        C  0.18000347  0.96899159  0.89579941     0.25100
C221        C  0.18288153  0.95706861  0.84256130    -0.19100
C222        C  0.14533721  0.95195160  0.80635950    -0.07600
C223        C  0.10412560  0.95853894  0.82289961    -0.03700
C224        C  0.10096458  0.96975623  0.87668136    -0.09000
C225        C  0.13882282  0.97506330  0.91292355    -0.16600
H226        H  0.31668999  0.92657359  0.09885409     0.11500
H227        H  0.24675685  0.92907569  0.05114975     0.10800
H228        H  0.35522074  0.03193168  0.93512918     0.10700
H229        H  0.42585681  0.03050453  0.98313208     0.11300
H230        H  0.21444214  0.95209067  0.82889402     0.11300
H231        H  0.14876596  0.94314183  0.76526780     0.11300
H232        H  0.06977446  0.97522951  0.89049051     0.11400
H233        H  0.13617446  0.98422282  0.95409871     0.10300
C234        C  0.53679053  0.96121388  0.33087926    -0.03500
C235        C  0.58852020  0.99645277  0.31820881    -0.09300
C236        C  0.62861742  0.99683095  0.34722791    -0.17000
C237        C  0.61749236  0.96193495  0.38907087     0.25200
C238        C  0.56620388  0.92671330  0.40172119    -0.18600
C239        C  0.52618991  0.92630175  0.37290546    -0.07500
C240        C  0.65822723  0.96250960  0.42004408    -0.14000
C241        C  0.69004783  0.96172414  0.44881489    -0.13700
C242        C  0.72586660  0.96051702  0.48620299     0.25100
C243        C  0.72101078  0.91340056  0.50182318    -0.19100
C244        C  0.75375887  0.91208222  0.54069773    -0.07600
C245        C  0.79180103  0.95798591  0.56457215    -0.03700
C246        C  0.79700691  0.00521897  0.54770160    -0.09000
C247        C  0.76419465  0.00639187  0.50895123    -0.16600
H248        H  0.59793881  0.02413248  0.28643725     0.11500
H249        H  0.66819851  0.02446405  0.33723317     0.10800
H250        H  0.55709927  0.89951420  0.43396371     0.10700
H251        H  0.48684558  0.89816904  0.38310617     0.11300
H252        H  0.69140411  0.87761059  0.48455300     0.11300
H253        H  0.74884768  0.87511451  0.55249209     0.11300
H254        H  0.82585447  0.04131572  0.56509812     0.11400
H255        H  0.76823005  0.04306282  0.49732919     0.10300
C256        C  0.10074591  0.95048934  0.54909166    -0.03500
C257        C  0.14415737  0.94845805  0.56703818    -0.09300
C258        C  0.17825402  0.94614250  0.53085340    -0.17000
C259        C  0.16961636  0.94582553  0.47619966     0.25200
C260        C  0.12658887  0.94792680  0.45776761    -0.18600
C261        C  0.09224369  0.95021749  0.49404626    -0.07500
C262        C  0.20542367  0.94355426  0.43964643    -0.14000
C263        C  0.23778466  0.94213241  0.41231751    -0.13700
C264        C  0.27861000  0.94159727  0.38261485     0.25100
C265        C  0.30106737  0.91329285  0.40121498    -0.19100
C266        C  0.34239706  0.91466735  0.37378955    -0.07600
C267        C  0.36175673  0.94441138  0.32733341    -0.03700
C268        C  0.33852774  0.97230033  0.30871592    -0.09000
C269        C  0.29728867  0.97090118  0.33620076    -0.16600
H270        H  0.15178853  0.94856081  0.60915602     0.11500
H271        H  0.21143225  0.94458342  0.54555540     0.10800
H272        H  0.11960051  0.94777282  0.41548034     0.10700
H273        H  0.05914993  0.95174284  0.47910748     0.11300
H274        H  0.28694405  0.89054661  0.43719500     0.11300
H275        H  0.35912981  0.89242814  0.38881739     0.11300
H276        H  0.35305558  0.99619925  0.27354380     0.11400
H277        H  0.28046339  0.99325104  0.32165711     0.10300
C278        C  0.84455615  0.82468285  0.82327515    -0.03500
C279        C  0.85190533  0.83521143  0.87812944    -0.09300
C280        C  0.81916336  0.79837955  0.91511005    -0.17000
C281        C  0.77901344  0.75072141  0.89755699     0.25200
C282        C  0.77143266  0.74017188  0.84310490    -0.18600
C283        C  0.80384259  0.77683272  0.80621534    -0.07500
C284        C  0.74494108  0.71227815  0.93473269    -0.14000
C285        C  0.71358129  0.67781172  0.96207240    -0.13700
C286        C  0.67331011  0.63554712  0.99119033     0.25100
C287        C  0.65141645  0.58524054  0.97125546    -0.19100
C288        C  0.61005714  0.54450003  0.99774978    -0.07600
C289        C  0.59017015  0.55367599  0.04458866    -0.03700
C290        C  0.61290451  0.60432535  0.06458091    -0.09000
C291        C  0.65415226  0.64493497  0.03803182    -0.16600
H292        H  0.88292513  0.87175115  0.89237537     0.11500
H293        H  0.82523065  0.80697503  0.95723601     0.10800
H294        H  0.74043467  0.70345409  0.82911011     0.10700
H295        H  0.79729045  0.76747345  0.76427908     0.11300
H296        H  0.66588890  0.57761656  0.93487485     0.11300
H297        H  0.59365407  0.50590052  0.98166622     0.11300
H298        H  0.59791885  0.61275302  0.10007277     0.11400
H299        H  0.67050020  0.68376761  0.05354342     0.10300
C300        C  0.41506452  0.39607393  0.03763442    -0.03500
C301        C  0.42577662  0.37134168  0.99604140    -0.09300
C302        C  0.38586598  0.33259424  0.96626647    -0.17000
C303        C  0.33462468  0.31795243  0.97749471     0.25200
C304        C  0.32343132  0.34217036  0.01892848    -0.19500
C305        C  0.36340958  0.38094185  0.04896767    -0.07500
C306        C  0.29394873  0.27849588  0.94583490    -0.14000
C307        C  0.26185666  0.24591617  0.91722845    -0.13700
C308        C  0.22556420  0.20802770  0.88078480     0.25100
C309        C  0.17822564  0.20515628  0.87103899    -0.19100
C310        C  0.14431266  0.17040542  0.83333502    -0.07600
C311        C  0.15731240  0.13793971  0.80490387    -0.03700
C312        C  0.20441023  0.14017358  0.81601989    -0.09000
C313        C  0.23836574  0.17516391  0.85351941    -0.16600
H314        H  0.46510425  0.38162294  0.98692251     0.11500
H315        H  0.39500344  0.31406615  0.93441122     0.10800
H316        H  0.28388829  0.33124431  0.02786707     0.10700
H317        H  0.35402639  0.39956443  0.08047718     0.11300
H318        H  0.16787322  0.23034288  0.89195502     0.11300
H319        H  0.10819540  0.16938151  0.82602137     0.11300
H320        H  0.21563519  0.11582947  0.79479049     0.11400
H321        H  0.27494984  0.17711429  0.86066547     0.10300
C322        C  0.57370864  0.56549245  0.32797689    -0.03500
C323        C  0.62504841  0.58931235  0.30997660    -0.09300
C324        C  0.66401634  0.63149979  0.33719746    -0.17000
C325        C  0.65226936  0.65058517  0.38268412     0.25200
C326        C  0.60123542  0.62754120  0.40060280    -0.18600
C327        C  0.56216835  0.58520957  0.37348228    -0.07500
C328        C  0.69290555  0.69200202  0.41250924    -0.14000
C329        C  0.72663177  0.72427578  0.43993810    -0.13700
C330        C  0.76532471  0.75930989  0.47647242     0.25100
C331        C  0.76031968  0.74705617  0.53059465    -0.19100
C332        C  0.79743011  0.78032173  0.56670875    -0.07600
C333        C  0.84032376  0.82645585  0.54921575    -0.03700
C334        C  0.84534540  0.83846979  0.49466660    -0.09000
C335        C  0.80795858  0.80503301  0.45848009    -0.16600
H336        H  0.63521972  0.57459083  0.27544959     0.11500
H337        H  0.70341546  0.64873130  0.32321862     0.10800
H338        H  0.59173405  0.64191864  0.43588429     0.10700
H339        H  0.52295899  0.56802796  0.38793068     0.11300
H340        H  0.72759616  0.71172188  0.54494896     0.11300
H341        H  0.79244787  0.76992774  0.60842977     0.11300
H342        H  0.87784938  0.87380665  0.48009666     0.11400
H343        H  0.81225079  0.81484653  0.41660866     0.10300
C344        C  0.15575622  0.13510760  0.56293695    -0.03500
C345        C  0.19768886  0.13005126  0.54541426    -0.09300
C346        C  0.23175059  0.16351813  0.50705570    -0.17000
C347        C  0.22433958  0.20231575  0.48534511     0.25200
C348        C  0.18183870  0.20666008  0.50117421    -0.18600
C349        C  0.14770226  0.17326241  0.53965473    -0.07500
C350        C  0.26184657  0.23911599  0.44894572    -0.14000
C351        C  0.29514556  0.27092219  0.42071795    -0.13700
C352        C  0.33629701  0.31006887  0.38922032     0.25100
C353        C  0.32525027  0.32826872  0.34267418    -0.19100
C354        C  0.36512733  0.36754891  0.31319487    -0.07600
C355        C  0.41659555  0.38937419  0.33009725    -0.03700
C356        C  0.42742443  0.37048231  0.37658439    -0.09000
C357        C  0.38750464  0.33098617  0.40585803    -0.16600
H358        H  0.20496516  0.10101558  0.56222191     0.11500
H359        H  0.26448463  0.15976610  0.49510922     0.10800
H360        H  0.17565018  0.23649668  0.48457196     0.10700
H361        H  0.11559585  0.17795211  0.55183459     0.11300
H362        H  0.28578214  0.31253844  0.32950710     0.11300
H363        H  0.35565605  0.38180103  0.27789039     0.11300
H364        H  0.46673246  0.38630184  0.39024953     0.11400
H365        H  0.39652730  0.31714459  0.44177535     0.10300
loop_ 
_geom_bond_atom_site_label_1 
_geom_bond_atom_site_label_2 
_geom_bond_distance 
_geom_bond_site_symmetry_2 
_ccdc_geom_bond_type 
C1            C2   1.404       .  A
C1            C6   1.406       .  A
C1          C355   1.484       .  S
C2            C3   1.402       .  A
C2            H7   1.083       .  S
C3            C4   1.402       .  A
C3          C322   1.486       .  S
C4            C5   1.412       .  A
C4            H8   1.080       .  S
C5            C6   1.412       .  A
C5           C14   1.506       .  S
C6            H9   1.080       .  S
C10          C11   1.403       .  A
C10          C15   1.407       .  A
C10         C300   1.486       .  S
C11          C12   1.400       .  A
C11          H16   1.083   1_554  S
C12          C13   1.401       .  A
C12         C289   1.485       .  S
C13          C14   1.411       .  A
C13          H17   1.080       .  S
C14          C15   1.414       .  A
C15          H18   1.079       .  S
C19          C20   1.408       .  A
C19          C24   1.404       .  A
C19         C234   1.488       .  S
C20          C21   1.414       .  A
C20          H25   1.079       .  S
C21          C22   1.411       .  A
C21          C32   1.506       .  S
C22          C23   1.401       .  A
C22          H26   1.080       .  S
C23          C24   1.401       .  A
C23         C267   1.486       .  S
C24          H27   1.083       .  S
C28          C29   1.403       .  A
C28          C33   1.406       .  A
C28         C201   1.484       .  S
C29          C30   1.401       .  A
C29          H34   1.083   1_554  S
C30          C31   1.402       .  A
C30         C212   1.487       .  S
C31          C32   1.412       .  A
C31          H35   1.080       .  S
C32          C33   1.412       .  A
C33          H36   1.079       .  S
C37          C38   1.405       .  A
C37          C42   1.403       .  A
C37         C168   1.487       .  S
C38          C39   1.412       .  A
C38          H43   1.079       .  S
C39          C40   1.412       .  A
C39          C48   1.508       .  S
C40          C41   1.404       .  A
C40          H44   1.079       .  S
C41          C42   1.403       .  A
C41         C157   1.488       .  S
C42          H45   1.083       .  S
C46          C47   1.407       .  A
C46          C51   1.402       .  A
C46         C135   1.489       .  S
C47          C48   1.414       .  A
C47          H52   1.078       .  S
C48          C49   1.413       .  A
C49          C50   1.403       .  A
C49          H53   1.078       .  S
C50          C51   1.400       .  A
C50         C102   1.485       .  S
C51          H54   1.083   1_554  S
O55          C82   1.271   1_455  A
O55         Mn81   2.085       .  S
C56         C344   1.485       .  S
C56          O89   1.272       .  A
C56          O86   1.273       .  A
O57         Mn64   2.161       .  S
O57         Mn75   2.130       .  S
O57         Mn79   2.159       .  S
O57         Mn81   2.127   1_655  S
O58          C68   1.273       .  A
O58         Mn92   2.096       .  S
O59          C82   1.273       .  A
O59         Mn75   2.099       .  S
O60          C87   1.251       .  A
O60         Mn79   2.092       .  S
O61         Mn92   1.962   1_565  S
O61         Mn81   1.967       .  S
O61          C77   1.220       .  S
C62         C113   1.477       .  S
C62          O65   1.251       .  A
C62          O88   1.220       .  S
O63         Mn83   2.128   1_565  S
O63         Mn64   2.160       .  S
O63         Mn97   2.128       .  S
O63         Mn79   2.159       .  S
Mn64         O93   2.097   1_565  S
Mn64         O69   2.097       .  S
Mn64         O96   2.097   1_655  S
Mn64         O70   2.162   1_665  S
O65         Mn79   2.091   1_545  S
O66          C68   1.271       .  A
O66         Mn73   2.089       .  S
C67         C146   1.479       .  S
C67          O93   1.252       .  A
C67          O80   1.220       .  S
C68         C311   1.482       .  S
O69          C94   1.252       .  A
O70         Mn73   2.127       .  S
O70         Mn92   2.129       .  S
O70         Mn79   2.160   1_445  S
O71         Mn75   1.966       .  S
O71         Mn97   1.960       .  S
O71          C94   1.220       .  S
C72         C190   1.483       .  S
C72          O98   1.273       .  A
C72          O74   1.271       .  A
Mn73         O86   2.098       .  S
Mn73         O88   1.965   1_455  S
Mn73         O80   1.959   1_455  S
O74         Mn97   2.085       .  S
Mn75         O91   2.089       .  S
Mn75         O85   1.960       .  S
O76          C78   1.273   1_455  A
O76         Mn81   2.096       .  S
C77         C223   1.479       .  S
C77          O95   1.252       .  A
C78         C179   1.484       .  S
C78          O91   1.271       .  A
Mn79         O95   2.095   1_655  S
O80         Mn83   1.965       .  S
Mn81         O99   1.958       .  S
C82         C124   1.483       .  S
Mn83         O90   2.087   1_545  S
Mn83         O98   2.097   1_545  S
Mn83         O88   1.960       .  S
C84         C245   1.485       .  S
C84          O90   1.271       .  A
C84         O100   1.274       .  A
O85         Mn97   1.967       .  S
O85          C87   1.220       .  S
C87         C278   1.478       .  S
O89         Mn92   2.089       .  S
Mn92         O99   1.962   1_545  S
C94         C333   1.480       .  S
O96         C101   1.252       .  A
Mn97        O100   2.101       .  S
O99         C101   1.219       .  S
C101        C256   1.479       .  S
C102        C103   1.406   1_554  A
C102        C107   1.408       .  A
C103        C104   1.396       .  A
C103        H116   1.083   1_655  S
C104        C105   1.399       .  A
C104        H117   1.084   1_655  S
C105        C106   1.400   1_556  A
C105        C108   1.438       .  S
C106        C107   1.399       .  A
C106        H118   1.083       .  S
C107        H119   1.083       .  S
C108        C109   1.205       .  T
C109        C110   1.437       .  S
C110        C111   1.401       .  A
C110        C115   1.398       .  A
C111        C112   1.400       .  A
C111        H120   1.083       .  S
C112        C113   1.407       .  A
C112        H121   1.083       .  S
C113        C114   1.406       .  A
C114        C115   1.394       .  A
C114        H122   1.083       .  S
C115        H123   1.084       .  S
C124        C125   1.409   1_655  A
C124        C129   1.408       .  A
C125        C126   1.397       .  A
C125        H138   1.083       .  S
C126        C127   1.398   1_455  A
C126        H139   1.084       .  S
C127        C128   1.400       .  A
C127        C130   1.440       .  S
C128        C129   1.400       .  A
C128        H140   1.083       .  S
C129        H141   1.083       .  S
C130        C131   1.206       .  T
C131        C132   1.440       .  S
C132        C133   1.398       .  A
C132        C137   1.400   1_656  A
C133        C134   1.396       .  A
C133        H142   1.084       .  S
C134        C135   1.408   1_556  A
C134        H143   1.083       .  S
C135        C136   1.408   1_655  A
C136        C137   1.400       .  A
C136        H144   1.082       .  S
C137        H145   1.083       .  S
C146        C147   1.407       .  A
C146        C151   1.407       .  A
C147        C148   1.394       .  A
C147        H160   1.083       .  S
C148        C149   1.397       .  A
C148        H161   1.084       .  S
C149        C150   1.402       .  A
C149        C152   1.440       .  S
C150        C151   1.402       .  A
C150        H162   1.083       .  S
C151        H163   1.083       .  S
C152        C153   1.206       .  T
C153        C154   1.440       .  S
C154        C155   1.398       .  A
C154        C159   1.401   1_655  A
C155        C156   1.398       .  A
C155        H164   1.084       .  S
C156        C157   1.409       .  A
C156        H165   1.083       .  S
C157        C158   1.407   1_655  A
C158        C159   1.400       .  A
C158        H166   1.083       .  S
C159        H167   1.083       .  S
C168        C169   1.407       .  A
C168        C173   1.408       .  A
C169        C170   1.399       .  A
C169        H182   1.083       .  S
C170        C171   1.400       .  A
C170        H183   1.083       .  S
C171        C172   1.399       .  A
C171        C174   1.441       .  S
C172        C173   1.399       .  A
C172        H184   1.084   1_655  S
C173        H185   1.083   1_655  S
C174        C175   1.207       .  T
C175        C176   1.441       .  S
C176        C177   1.399       .  A
C176        C181   1.400   1_655  A
C177        C178   1.398       .  A
C177        H186   1.083       .  S
C178        C179   1.409       .  A
C178        H187   1.083       .  S
C179        C180   1.408   1_655  A
C180        C181   1.399       .  A
C180        H188   1.083       .  S
C181        H189   1.083       .  S
C190        C191   1.409       .  A
C190        C195   1.408   1_565  A
C191        C192   1.397       .  A
C191        H204   1.083       .  S
C192        C193   1.398       .  A
C192        H205   1.084       .  S
C193        C194   1.400   1_565  A
C193        C196   1.439       .  S
C194        C195   1.399       .  A
C194        H206   1.083       .  S
C195        H207   1.083       .  S
C196        C197   1.206       .  T
C197        C198   1.439       .  S
C198        C199   1.399       .  A
C198        C203   1.401   1_556  A
C199        C200   1.396       .  A
C199        H208   1.084   1_565  S
C200        C201   1.407   1_556  A
C200        H209   1.083   1_565  S
C201        C202   1.407       .  A
C202        C203   1.400       .  A
C202        H210   1.083       .  S
C203        H211   1.083       .  S
C212        C213   1.408       .  A
C212        C217   1.407   1_564  A
C213        C214   1.397       .  A
C213        H226   1.083       .  S
C214        C215   1.398   1_554  A
C214        H227   1.084       .  S
C215        C216   1.401   1_565  A
C215        C218   1.440       .  S
C216        C217   1.400       .  A
C216        H228   1.083       .  S
C217        H229   1.083       .  S
C218        C219   1.206       .  T
C219        C220   1.440       .  S
C220        C221   1.398       .  A
C220        C225   1.401       .  A
C221        C222   1.395       .  A
C221        H230   1.084       .  S
C222        C223   1.407       .  A
C222        H231   1.083       .  S
C223        C224   1.407       .  A
C224        C225   1.402       .  A
C224        H232   1.083       .  S
C225        H233   1.083       .  S
C234        C235   1.408       .  A
C234        C239   1.407       .  A
C235        C236   1.402       .  A
C235        H248   1.083   1_565  S
C236        C237   1.401       .  A
C236        H249   1.083   1_565  S
C237        C238   1.398       .  A
C237        C240   1.441       .  S
C238        C239   1.396       .  A
C238        H250   1.084       .  S
C239        H251   1.083       .  S
C240        C241   1.207       .  T
C241        C242   1.442       .  S
C242        C243   1.401       .  A
C242        C247   1.399   1_565  A
C243        C244   1.400       .  A
C243        H252   1.083       .  S
C244        C245   1.408       .  A
C244        H253   1.083       .  S
C245        C246   1.409   1_565  A
C246        C247   1.398       .  A
C246        H254   1.083       .  S
C247        H255   1.084       .  S
C256        C257   1.407       .  A
C256        C261   1.407       .  A
C257        C258   1.394       .  A
C257        H270   1.083       .  S
C258        C259   1.397       .  A
C258        H271   1.084       .  S
C259        C260   1.401       .  A
C259        C262   1.439       .  S
C260        C261   1.401       .  A
C260        H272   1.083       .  S
C261        H273   1.083       .  S
C262        C263   1.206       .  T
C263        C264   1.439       .  S
C264        C265   1.401       .  A
C264        C269   1.398       .  A
C265        C266   1.399       .  A
C265        H274   1.083       .  S
C266        C267   1.407       .  A
C266        H275   1.083       .  S
C267        C268   1.409       .  A
C268        C269   1.397       .  A
C268        H276   1.083       .  S
C269        H277   1.084       .  S
C278        C279   1.407       .  A
C278        C283   1.407       .  A
C279        C280   1.401       .  A
C279        H292   1.083       .  S
C280        C281   1.401       .  A
C280        H293   1.083       .  S
C281        C282   1.397       .  A
C281        C284   1.438       .  S
C282        C283   1.394       .  A
C282        H294   1.084       .  S
C283        H295   1.083       .  S
C284        C285   1.205       .  T
C285        C286   1.438       .  S
C286        C287   1.401       .  A
C286        C291   1.398   1_556  A
C287        C288   1.399       .  A
C287        H296   1.083       .  S
C288        C289   1.406   1_556  A
C288        H297   1.083       .  S
C289        C290   1.408       .  A
C290        C291   1.396       .  A
C290        H298   1.083       .  S
C291        H299   1.084       .  S
C300        C301   1.407   1_554  A
C300        C305   1.407       .  A
C301        C302   1.396       .  A
C301        H314   1.083       .  S
C302        C303   1.399       .  A
C302        H315   1.084       .  S
C303        C304   1.401   1_556  A
C303        C306   1.441       .  S
C304        C305   1.401       .  A
C304        H316   1.083       .  S
C305        H317   1.083       .  S
C306        C307   1.207       .  T
C307        C308   1.441       .  S
C308        C309   1.400       .  A
C308        C313   1.400       .  A
C309        C310   1.399       .  A
C309        H318   1.083       .  S
C310        C311   1.408       .  A
C310        H319   1.083       .  S
C311        C312   1.407       .  A
C312        C313   1.399       .  A
C312        H320   1.083       .  S
C313        H321   1.084       .  S
C322        C323   1.408       .  A
C322        C327   1.406       .  A
C323        C324   1.398       .  A
C323        H336   1.083       .  S
C324        C325   1.399       .  A
C324        H337   1.084       .  S
C325        C326   1.401       .  A
C325        C328   1.440       .  S
C326        C327   1.400       .  A
C326        H338   1.083       .  S
C327        H339   1.083       .  S
C328        C329   1.206       .  T
C329        C330   1.440       .  S
C330        C331   1.398       .  A
C330        C335   1.401       .  A
C331        C332   1.395       .  A
C331        H340   1.084       .  S
C332        C333   1.407       .  A
C332        H341   1.083       .  S
C333        C334   1.407       .  A
C334        C335   1.402       .  A
C334        H342   1.083       .  S
C335        H343   1.083       .  S
C344        C345   1.409       .  A
C344        C349   1.409       .  A
C345        C346   1.398       .  A
C345        H358   1.083       .  S
C346        C347   1.399       .  A
C346        H359   1.084       .  S
C347        C348   1.400       .  A
C347        C350   1.441       .  S
C348        C349   1.400       .  A
C348        H360   1.083       .  S
C349        H361   1.083       .  S
C350        C351   1.207       .  T
C351        C352   1.441       .  S
C352        C353   1.400       .  A
C352        C357   1.401       .  A
C353        C354   1.399       .  A
C353        H362   1.084       .  S
C354        C355   1.407       .  A
C354        H363   1.083       .  S
C355        C356   1.406       .  A
C356        C357   1.399       .  A
C356        H364   1.083       .  S
C357        H365   1.083       .  S
