geometry optimzed in LAMMPS
_audit_creation_date              2020-11-30 
_audit_creation_method            'lammps2cif' 
_symmetry_space_group_name_H-M    'P1' 
_symmetry_Int_Tables_number       1 
_symmetry_cell_setting            triclinic 
loop_ 
_symmetry_equiv_pos_as_xyz 
  x,y,z 
_cell_length_a                    24.62146724 
_cell_length_b                    24.62158470391941 
_cell_length_c                    34.047469111196214 
_cell_angle_alpha                 90.21458178111624 
_cell_angle_beta                  89.73551692527123 
_cell_angle_gamma                 90.03869124676942 
loop_ 
_atom_site_label 
_atom_site_type_symbol 
_atom_site_fract_x 
_atom_site_fract_y 
_atom_site_fract_z 
_atom_site_charge 
C1          C  0.36014004  0.00184076  0.16352409     0.03200
C2          C  0.33137062  0.00193167  0.12809806    -0.12900
C3          C  0.27446243  0.00116030  0.12851900     0.00700
C4          C  0.24636837  0.00034895  0.16434679    -0.11400
C5          C  0.27499500  0.00048112  0.19977433     0.03200
C6          C  0.33191149  0.00123723  0.19937531    -0.10900
H7          H  0.35310404  0.00251616  0.10033016     0.08800
H8          H  0.20232302  0.99987708  0.16465977     0.06300
H9          H  0.35406377  0.00139365  0.22682691     0.06200
C10         C  0.80584975  0.00388708  0.16502699     0.03200
C11         C  0.83447499  0.00420222  0.12936328    -0.12900
C12         C  0.89136324  0.00427356  0.12928800     0.00700
C13         C  0.91963224  0.00402027  0.16485812    -0.11400
C14         C  0.89117323  0.00360751  0.20054332     0.03200
C15         C  0.83422674  0.00351692  0.20064364    -0.10900
H16         H  0.81263276  0.00435316  0.10177908     0.08800
H17         H  0.96368028  0.00402795  0.16476718     0.06300
H18         H  0.81217977  0.00324500  0.22828337     0.06200
C19         C  0.08374708  0.27942920  0.16502882     0.03200
C20         C  0.08366741  0.25097570  0.12929860    -0.12900
C21         C  0.08436600  0.19407741  0.12911282     0.00700
C22         C  0.08510714  0.16565671  0.16463328    -0.11400
C23         C  0.08497836  0.19395884  0.20036506     0.03200
C24         C  0.08429359  0.25088370  0.20057742    -0.10500
H25         H  0.08313110  0.27295091  0.10176149     0.08800
H26         H  0.08552456  0.12161095  0.16447050     0.06300
H27         H  0.08414440  0.27279271  0.22826396     0.06200
C28         C  0.08159619  0.72515238  0.16382190     0.03200
C29         C  0.08120649  0.75381192  0.12832497    -0.12900
C30         C  0.08093987  0.81073316  0.12862339     0.00700
C31         C  0.08106731  0.83893039  0.16439948    -0.11400
C32         C  0.08159030  0.81040355  0.19988301     0.03200
C33         C  0.08188186  0.75349252  0.19960544    -0.10900
H34         H  0.08114612  0.73198805  0.10060413     0.08800
H35         H  0.08092659  0.88297777  0.16462613     0.06300
H36         H  0.08224190  0.73142485  0.22710547     0.06200
N37         N  0.19989455  0.02821057  0.04300140    -0.06000
N38         N  0.22763228  0.04687116  0.07328684    -0.58100
N39         N  0.19982651  0.97438455  0.28571176    -0.05700
N40         N  0.22738165  0.95531164  0.25529058    -0.60300
N41         N  0.20037264  0.02783033  0.28580857    -0.05300
N42         N  0.22833356  0.04631327  0.25550195    -0.58100
N43         N  0.19928286  0.97476589  0.04301929    -0.05000
N44         N  0.22652985  0.95586647  0.07334522    -0.60600
C45         C  0.24412388  0.00128771  0.09168306     0.96200
C46         C  0.24512289  0.00064748  0.23701591     0.95900
N47         N  0.05530934  0.88553463  0.28584837    -0.06200
N48         N  0.03637391  0.85804899  0.25548572    -0.58700
N49         N  0.10839957  0.88543033  0.04302111    -0.04300
N50         N  0.12685527  0.85769774  0.07325970    -0.60000
N51         N  0.05495462  0.88590116  0.04313126    -0.06200
N52         N  0.03585138  0.85850590  0.07347829    -0.59000
N53         N  0.10875657  0.88499067  0.28580430    -0.04000
N54         N  0.12737804  0.85707422  0.25542593    -0.60100
Mn55       Mn  0.15543699  0.92849784  0.33104192     1.18400
C56         C  0.08177092  0.84034693  0.23706737     0.98200
C57         C  0.08117005  0.84099877  0.09172461     0.98900
N58         N  0.11101185  0.11873924  0.28581895    -0.06300
N59         N  0.13010329  0.14618635  0.25549360    -0.62600
N60         N  0.05722463  0.11961888  0.04314747    -0.05100
N61         N  0.03859935  0.14743091  0.07357184    -0.63200
N62         N  0.11066591  0.11906490  0.04310777    -0.05800
N63         N  0.12960322  0.14642975  0.07352581    -0.62800
N64         N  0.05756229  0.11922869  0.28594570    -0.04700
N65         N  0.03909730  0.14703704  0.25574902    -0.63500
Mn66       Mn  0.15687992  0.07483255  0.33108930     1.10700
C67         C  0.08477688  0.16376669  0.23729227     0.99500
C68         C  0.08420439  0.16406267  0.09197075     0.99500
N69         N  0.96579200  0.97683525  0.04321057    -0.05800
N70         N  0.93809818  0.95836401  0.07364413    -0.61100
N71         N  0.96651627  0.02990711  0.28600560    -0.05100
N72         N  0.93901354  0.04882568  0.25580414    -0.57900
N73         N  0.96593723  0.97645991  0.28599335    -0.06400
N74         N  0.93798564  0.95782805  0.25579502    -0.60700
N75         N  0.96631626  0.03027922  0.04328548    -0.05400
N76         N  0.93899433  0.04937523  0.07380033    -0.57900
Mn77       Mn  0.00910108  0.92981395  0.33120241     1.20200
Mn78       Mn  0.01053549  0.07615433  0.99792362     1.10100
Cl79       Cl  0.08298881  0.00232328  0.33112752    -0.85900
C80         C  0.92148908  0.00404677  0.09218438     0.96500
C81         C  0.92125621  0.00342513  0.23751484     0.96300
C82         C  0.08181325  0.55922889  0.16388845     0.17100
C83         C  0.08511693  0.53010439  0.12851966    -0.12000
C84         C  0.08552953  0.47328509  0.12888665    -0.12800
C85         C  0.08262303  0.44534611  0.16462131     0.18700
C86         C  0.07927771  0.47447424  0.19998225    -0.14900
C87         C  0.07886480  0.53128583  0.19961532    -0.13200
C88         C  0.08300875  0.38687829  0.16499553    -0.00400
C89         C  0.08330303  0.33790049  0.16515799    -0.33200
C90         C  0.08165308  0.61769849  0.16356917     0.01000
C91         C  0.08164237  0.66667867  0.16355758    -0.34800
H92         H  0.08742248  0.55128871  0.10072665     0.12100
H93         H  0.08812027  0.45117385  0.10136947     0.11900
H94         H  0.07700425  0.45329537  0.22777852     0.11800
H95         H  0.07630696  0.55339235  0.22713559     0.10800
C96         C  0.63993981  0.00402845  0.16393487     0.17100
C97         C  0.61065314  0.02657698  0.19537281    -0.12000
C98         C  0.55384959  0.02618117  0.19498584    -0.12800
C99         C  0.52605700  0.00325831  0.16315364     0.18700
C100        C  0.55533164  0.98081817  0.13165327    -0.14900
C101        C  0.61215949  0.98121415  0.13204047    -0.13200
C102        C  0.46758954  0.00269658  0.16292385    -0.00400
C103        C  0.41861060  0.00233108  0.16309165    -0.33200
C104        C  0.69840368  0.00407041  0.16451605     0.01000
C105        C  0.74737698  0.00398617  0.16496454    -0.34800
H106        H  0.63170707  0.04432924  0.22017624     0.12100
H107        H  0.53162641  0.04364766  0.21949158     0.11900
H108        H  0.53426316  0.96299402  0.10688400     0.11800
H109        H  0.63439662  0.96367485  0.10756906     0.10800
C110        C  0.36014015  0.00184084  0.49685742     0.03200
C111        C  0.33137059  0.00193176  0.46143138    -0.12900
C112        C  0.27446250  0.00116057  0.46185230     0.00700
C113        C  0.24636852  0.00034895  0.49768019    -0.11400
C114        C  0.27499524  0.00048112  0.53310774     0.03200
C115        C  0.33191162  0.00123715  0.53270871    -0.10900
H116        H  0.35310410  0.00251719  0.43366308     0.08800
H117        H  0.20232324  0.99987647  0.49799352     0.06300
H118        H  0.35406414  0.00139344  0.56016069     0.06200
C119        C  0.80584979  0.00388718  0.49836055     0.03200
C120        C  0.83447495  0.00420233  0.46269670    -0.12900
C121        C  0.89136310  0.00427379  0.46262140     0.00700
C122        C  0.91963208  0.00402022  0.49819148    -0.11400
C123        C  0.89117312  0.00360748  0.53387680     0.03200
C124        C  0.83422674  0.00351686  0.53397724    -0.10900
H125        H  0.81263269  0.00435422  0.43511253     0.08800
H126        H  0.96368013  0.00402774  0.49810042     0.06300
H127        H  0.81217965  0.00324479  0.56161737     0.06200
C128        C  0.08374713  0.27942920  0.49836200     0.03200
C129        C  0.08366733  0.25097565  0.46263180    -0.12900
C130        C  0.08436603  0.19407739  0.46244612     0.00700
C131        C  0.08510708  0.16565675  0.49796663    -0.11400
C132        C  0.08497850  0.19395890  0.53369835     0.03200
C133        C  0.08429366  0.25088379  0.53391067    -0.10500
H134        H  0.08313117  0.27295077  0.43509458     0.08800
H135        H  0.08552463  0.12161103  0.49780386     0.06300
H136        H  0.08414449  0.27279288  0.56159696     0.06200
C137        C  0.08159610  0.72515225  0.49715499     0.03200
C138        C  0.08120655  0.75381168  0.46165807    -0.12900
C139        C  0.08093972  0.81073287  0.46195654     0.00700
C140        C  0.08106723  0.83893024  0.49773267    -0.11400
C141        C  0.08159000  0.81040351  0.53321624     0.03200
C142        C  0.08188180  0.75349249  0.53293868    -0.10900
H143        H  0.08114695  0.73198737  0.43393682     0.08800
H144        H  0.08092571  0.88297763  0.49795921     0.06300
H145        H  0.08224107  0.73142482  0.56043879     0.06200
N146        N  0.19989462  0.02821058  0.37633468    -0.06000
N147        N  0.22763231  0.04687124  0.40662020    -0.58100
N148        N  0.19982665  0.97438457  0.61904519    -0.05700
N149        N  0.22738181  0.95531172  0.58862400    -0.60300
N150        N  0.20037264  0.02783037  0.61914199    -0.05300
N151        N  0.22833359  0.04631319  0.58883539    -0.58100
N152        N  0.19928303  0.97476602  0.37635245    -0.05000
N153        N  0.22652980  0.95586668  0.40667856    -0.60600
C154        C  0.24412372  0.00128789  0.42501645     0.96200
C155        C  0.24512297  0.00064747  0.57034927     0.95900
N156        N  0.05530943  0.88553469  0.61918156    -0.06200
N157        N  0.03637397  0.85804886  0.58881897    -0.58700
N158        N  0.10839954  0.88543038  0.37635443    -0.04300
N159        N  0.12685517  0.85769762  0.40659300    -0.60000
N160        N  0.05495465  0.88590143  0.37646464    -0.06200
N161        N  0.03585150  0.85850600  0.40681161    -0.59000
N162        N  0.10875666  0.88499060  0.61913768    -0.04000
N163        N  0.12737806  0.85707418  0.58875929    -0.60100
Mn164      Mn  0.15543711  0.92849791  0.66437535     1.18400
C165        C  0.08177092  0.84034699  0.57040058     0.98200
C166        C  0.08117002  0.84099886  0.42505800     0.98900
N167        N  0.11101182  0.11873930  0.61915233    -0.06300
N168        N  0.13010333  0.14618635  0.58882697    -0.62600
N169        N  0.05722479  0.11961872  0.37648083    -0.05100
N170        N  0.03859940  0.14743100  0.40690507    -0.63200
N171        N  0.11066607  0.11906507  0.37644101    -0.05800
N172        N  0.12960320  0.14642973  0.40685920    -0.62800
N173        N  0.05756225  0.11922865  0.61927896    -0.04700
N174        N  0.03909737  0.14703716  0.58908233    -0.63500
Mn175      Mn  0.15687984  0.07483259  0.66442266     1.10700
C176        C  0.08477700  0.16376680  0.57062561     0.99500
C177        C  0.08420436  0.16406253  0.42530415     0.99500
N178        N  0.96579207  0.97683529  0.37654398    -0.05800
N179        N  0.93809822  0.95836416  0.40697757    -0.61100
N180        N  0.96651613  0.02990718  0.61933890    -0.05100
N181        N  0.93901346  0.04882567  0.58913738    -0.57900
N182        N  0.96593740  0.97645996  0.61932655    -0.06400
N183        N  0.93798569  0.95782804  0.58912834    -0.60700
N184        N  0.96631621  0.03027925  0.37661879    -0.05400
N185        N  0.93899429  0.04937516  0.40713368    -0.57900
Mn186      Mn  0.00910115  0.92981396  0.66453567     1.20200
Mn187      Mn  0.01053553  0.07615435  0.33125694     1.10100
Cl188      Cl  0.08298877  0.00232334  0.66446081    -0.85900
C189        C  0.92148892  0.00404685  0.42551777     0.96500
C190        C  0.92125627  0.00342508  0.57084812     0.96300
C191        C  0.08181329  0.55922897  0.49722199     0.17100
C192        C  0.08511683  0.53010435  0.46185311    -0.12000
C193        C  0.08552944  0.47328503  0.46222012    -0.12800
C194        C  0.08262294  0.44534610  0.49795477     0.18700
C195        C  0.07927775  0.47447434  0.53331578    -0.14900
C196        C  0.07886482  0.53128595  0.53294887    -0.13200
C197        C  0.08300877  0.38687830  0.49832890    -0.00400
C198        C  0.08330311  0.33790051  0.49849134    -0.33200
C199        C  0.08165315  0.61769851  0.49690265     0.01000
C200        C  0.08164240  0.66667865  0.49689069    -0.34800
H201        H  0.08742291  0.55128860  0.43406003     0.12100
H202        H  0.08811921  0.45117374  0.43470290     0.11900
H203        H  0.07700490  0.45329535  0.56111201     0.11800
H204        H  0.07630696  0.55339267  0.56046946     0.10800
C205        C  0.63993976  0.00402835  0.49726803     0.17100
C206        C  0.61065304  0.02657624  0.52870617    -0.12000
C207        C  0.55384945  0.02618044  0.52831914    -0.12800
C208        C  0.52605694  0.00325835  0.49648671     0.18700
C209        C  0.55533163  0.98081879  0.46498617    -0.14900
C210        C  0.61215952  0.98121471  0.46537335    -0.13200
C211        C  0.46758952  0.00269657  0.49625710    -0.00400
C212        C  0.41861061  0.00233105  0.49642479    -0.33200
C213        C  0.69840375  0.00407034  0.49784948     0.01000
C214        C  0.74737709  0.00398617  0.49829790    -0.34800
H215        H  0.63170667  0.04432729  0.55350973     0.12100
H216        H  0.53162635  0.04364660  0.55282493     0.11900
H217        H  0.53426319  0.96299543  0.44021639     0.11800
H218        H  0.63439664  0.96367614  0.44090190     0.10800
C219        C  0.36014019  0.00184078  0.83019072     0.03200
C220        C  0.33137072  0.00193175  0.79476461    -0.12900
C221        C  0.27446265  0.00116055  0.79518559     0.00700
C222        C  0.24636859  0.00034894  0.83101349    -0.11400
C223        C  0.27499518  0.00048111  0.86644113     0.03200
C224        C  0.33191157  0.00123710  0.86604201    -0.10900
H225        H  0.35310426  0.00251723  0.76699627     0.08800
H226        H  0.20232333  0.99987647  0.83132656     0.06300
H227        H  0.35406414  0.00139341  0.89349397     0.06200
C228        C  0.80584979  0.00388728  0.83169363     0.03200
C229        C  0.83447495  0.00420232  0.79602985    -0.12900
C230        C  0.89136316  0.00427373  0.79595471     0.00700
C231        C  0.91963215  0.00402018  0.83152482    -0.11400
C232        C  0.89117319  0.00360739  0.86721003     0.03200
C233        C  0.83422669  0.00351683  0.86731037    -0.10900
H234        H  0.81263282  0.00435430  0.76844563     0.08800
H235        H  0.96368019  0.00402770  0.83143368     0.06300
H236        H  0.81217978  0.00324486  0.89495008     0.06200
C237        C  0.08374716  0.27942928  0.83169518     0.03200
C238        C  0.08366738  0.25097569  0.79596504    -0.12900
C239        C  0.08436619  0.19407745  0.79577933     0.00700
C240        C  0.08510720  0.16565677  0.83129993    -0.11400
C241        C  0.08497866  0.19395892  0.86703163     0.03200
C242        C  0.08429375  0.25088377  0.86724385    -0.10500
H243        H  0.08313167  0.27295100  0.76842749     0.08800
H244        H  0.08552470  0.12161104  0.83113732     0.06300
H245        H  0.08414454  0.27279289  0.89493014     0.06200
C246        C  0.08159614  0.72515226  0.83048829     0.03200
C247        C  0.08120662  0.75381169  0.79499138    -0.12900
C248        C  0.08093974  0.81073288  0.79528996     0.00700
C249        C  0.08106725  0.83893025  0.83106619    -0.11400
C250        C  0.08159007  0.81040348  0.86654969     0.03200
C251        C  0.08188182  0.75349248  0.86627200    -0.10900
H252        H  0.08114704  0.73198746  0.76727005     0.08800
H253        H  0.08092624  0.88297766  0.83129285     0.06300
H254        H  0.08224158  0.73142477  0.89377203     0.06200
N255        N  0.19989455  0.02821065  0.70966811    -0.06000
N256        N  0.22763240  0.04687117  0.73995354    -0.58100
N257        N  0.19982650  0.97438457  0.95237842    -0.05700
N258        N  0.22738161  0.95531168  0.92195726    -0.60300
N259        N  0.20037252  0.02783037  0.95247533    -0.05300
N260        N  0.22833352  0.04631321  0.92216876    -0.58100
N261        N  0.19928306  0.97476602  0.70968592    -0.05000
N262        N  0.22652987  0.95586661  0.74001196    -0.60600
C263        C  0.24412381  0.00128781  0.75834982     0.96200
C264        C  0.24512292  0.00064748  0.90368266     0.95900
N265        N  0.05530936  0.88553463  0.95251492    -0.06200
N266        N  0.03637391  0.85804900  0.92215224    -0.58700
N267        N  0.10839959  0.88543036  0.70968780    -0.04300
N268        N  0.12685517  0.85769770  0.73992643    -0.60000
N269        N  0.05495469  0.88590139  0.70979796    -0.06200
N270        N  0.03585155  0.85850608  0.74014500    -0.59000
N271        N  0.10875659  0.88499067  0.95247094    -0.04000
N272        N  0.12737808  0.85707427  0.92209256    -0.60100
Mn273      Mn  0.15543708  0.92849786  0.99770860     1.18400
C274        C  0.08177092  0.84034690  0.90373401     0.98200
C275        C  0.08117004  0.84099872  0.75839134     0.98900
N276        N  0.11101174  0.11873925  0.95248572    -0.06300
N277        N  0.13010328  0.14618625  0.92216029    -0.62600
N278        N  0.05722473  0.11961880  0.70981407    -0.05100
N279        N  0.03859937  0.14743090  0.74023838    -0.63200
N280        N  0.11066601  0.11906506  0.70977436    -0.05800
N281        N  0.12960322  0.14642970  0.74019252    -0.62800
N282        N  0.05756226  0.11922882  0.95261247    -0.04700
N283        N  0.03909733  0.14703707  0.92241567    -0.63500
Mn284      Mn  0.15687977  0.07483253  0.99775601     1.10700
C285        C  0.08477697  0.16376692  0.90395905     0.99500
C286        C  0.08420439  0.16406249  0.75863743     0.99500
N287        N  0.96579207  0.97683533  0.70987718    -0.05800
N288        N  0.93809841  0.95836414  0.74031083    -0.61100
N289        N  0.96651633  0.02990715  0.95267217    -0.05100
N290        N  0.93901333  0.04882563  0.92247080    -0.57900
N291        N  0.96593711  0.97645995  0.95266006    -0.06400
N292        N  0.93798560  0.95782803  0.92246174    -0.60700
N293        N  0.96631616  0.03027930  0.70995209    -0.05400
N294        N  0.93899422  0.04937515  0.74046697    -0.57900
Mn295      Mn  0.00910106  0.92981392  0.99786903     1.20200
Mn296      Mn  0.01053549  0.07615431  0.66459026     1.10100
Cl297      Cl  0.08298865  0.00232332  0.99779419    -0.85900
C298        C  0.92148902  0.00404679  0.75885109     0.96500
C299        C  0.92125634  0.00342504  0.90418141     0.96300
C300        C  0.08181322  0.55922900  0.83055502     0.17100
C301        C  0.08511691  0.53010442  0.79518625    -0.12000
C302        C  0.08552953  0.47328502  0.79555317    -0.12800
C303        C  0.08262287  0.44534607  0.83128784     0.18700
C304        C  0.07927758  0.47447435  0.86664887    -0.14900
C305        C  0.07886465  0.53128605  0.86628184    -0.13200
C306        C  0.08300882  0.38687834  0.83166209    -0.00400
C307        C  0.08330317  0.33790059  0.83182464    -0.33200
C308        C  0.08165320  0.61769857  0.83023577     0.01000
C309        C  0.08164246  0.66667869  0.83022418    -0.34800
H310        H  0.08742317  0.55128886  0.76739337     0.12100
H311        H  0.08811949  0.45117395  0.76803580     0.11900
H312        H  0.07700388  0.45329589  0.89444507     0.11800
H313        H  0.07630595  0.55339264  0.89380204     0.10800
C314        C  0.63993998  0.00402860  0.83060139     0.17100
C315        C  0.61065317  0.02657561  0.86203990    -0.12000
C316        C  0.55384961  0.02617982  0.86165295    -0.12800
C317        C  0.52605703  0.00325847  0.82982022     0.18700
C318        C  0.55533170  0.98081964  0.79831936    -0.14900
C319        C  0.61215958  0.98121560  0.79870654    -0.13200
C320        C  0.46758959  0.00269654  0.82959044    -0.00400
C321        C  0.41861066  0.00233121  0.82975830    -0.33200
C322        C  0.69840385  0.00407058  0.83118266     0.01000
C323        C  0.74737712  0.00398636  0.83163127    -0.34800
H324        H  0.63170707  0.04432663  0.88684386     0.12100
H325        H  0.53162635  0.04364503  0.88615918     0.11900
H326        H  0.53426308  0.96299720  0.77354952     0.11800
H327        H  0.63439672  0.96367745  0.77423448     0.10800
loop_ 
_geom_bond_atom_site_label_1 
_geom_bond_atom_site_label_2 
_geom_bond_distance 
_geom_bond_site_symmetry_2 
_ccdc_geom_bond_type 
C1            C2   1.402       .  A
C1            C6   1.402       .  A
C1          C103   1.440       .  S
C2            C3   1.401       .  A
C2            H7   1.084       .  S
C3            C4   1.400       .  A
C3           C45   1.463       .  S
C4            C5   1.400       .  A
C4            H8   1.085   1_545  S
C5            C6   1.401       .  A
C5           C46   1.463       .  S
C6            H9   1.084       .  S
C10          C11   1.401       .  A
C10          C15   1.402       .  A
C10         C105   1.440       .  S
C11          C12   1.401       .  A
C11          H16   1.084       .  S
C12          C13   1.400       .  A
C12          C80   1.462       .  S
C13          C14   1.400       .  A
C13          H17   1.085       .  S
C14          C15   1.402       .  A
C14          C81   1.464       .  S
C15          H18   1.084       .  S
C19          C20   1.402       .  A
C19          C24   1.402       .  A
C19          C89   1.440       .  S
C20          C21   1.401       .  A
C20          H25   1.084       .  S
C21          C22   1.400       .  A
C21          C68   1.462       .  S
C22          C23   1.400       .  A
C22          H26   1.085       .  S
C23          C24   1.402       .  A
C23          C67   1.463       .  S
C24          H27   1.084       .  S
C28          C29   1.402       .  A
C28          C33   1.402       .  A
C28          C91   1.440       .  S
C29          C30   1.402       .  A
C29          H34   1.084       .  S
C30          C31   1.400       .  A
C30          C57   1.463       .  S
C31          C32   1.400       .  A
C31          H35   1.085       .  S
C32          C33   1.401       .  A
C32          C56   1.463       .  S
C33          H36   1.084       .  S
N37          N38   1.320       .  A
N37          N43   1.316   1_545  A
N37        Mn284   2.201   1_554  S
N38          C45   1.351       .  A
N39          N41   1.316   1_565  A
N39          N40   1.321       .  A
N39         Mn55   2.202       .  S
N40          C46   1.351   1_565  A
N41          N42   1.320       .  A
N41         Mn66   2.199       .  S
N42          C46   1.351       .  A
N43          N44   1.320       .  A
N43        Mn273   2.201   1_554  S
N44          C45   1.351   1_565  A
N47          N53   1.316       .  A
N47          N48   1.320       .  A
N47         Mn77   2.200       .  S
N48          C56   1.351       .  A
N49          N50   1.320       .  A
N49          N51   1.316       .  A
N49        Mn273   2.200   1_554  S
N50          C57   1.351       .  A
N51          N52   1.321       .  A
N51        Mn295   2.202   1_554  S
N52          C57   1.351       .  A
N53          N54   1.320       .  A
N53         Mn55   2.201       .  S
N54          C56   1.351       .  A
Mn55        N152   2.201       .  S
Mn55        N158   2.200       .  S
Mn55        Cl79   2.548   1_565  S
N58          N59   1.321       .  A
N58          N64   1.316       .  A
N58         Mn66   2.202       .  S
N59          C67   1.351       .  A
N60          N62   1.316       .  A
N60          N61   1.320       .  A
N60         Mn78   2.200   1_554  S
N61          C68   1.351       .  A
N62          N63   1.320       .  A
N62        Mn284   2.200   1_554  S
N63          C68   1.351       .  A
N64          N65   1.320       .  A
N64        Mn187   2.200       .  S
N65          C67   1.351       .  A
Mn66        N146   2.201       .  S
Mn66        N171   2.200       .  S
Mn66        Cl79   2.548       .  S
N69          N70   1.320       .  A
N69          N75   1.316   1_565  A
N69        Mn295   2.199   1_654  S
N70          C80   1.350   1_565  A
N71          N72   1.320       .  A
N71          N73   1.316   1_545  A
N71        Mn187   2.201   1_655  S
N72          C81   1.351       .  A
N73          N74   1.321       .  A
N73         Mn77   2.202   1_655  S
N74          C81   1.351   1_565  A
N75          N76   1.320       .  A
N75         Mn78   2.201   1_654  S
N76          C80   1.351       .  A
Mn77        N160   2.202       .  S
Mn77        N178   2.199   1_455  S
Mn77        Cl79   2.548   1_565  S
Mn78        N282   2.200       .  S
Mn78        N289   2.201   1_455  S
Mn78       Cl297   2.548       .  S
Cl79       Mn187   2.548       .  S
C82          C83   1.401       .  A
C82          C87   1.401       .  A
C82          C90   1.440       .  S
C83          C84   1.399       .  A
C83          H92   1.083       .  S
C84          C85   1.401       .  A
C84          H93   1.083       .  S
C85          C86   1.401       .  A
C85          C88   1.440       .  S
C86          C87   1.399       .  A
C86          H94   1.083       .  S
C87          H95   1.083       .  S
C88          C89   1.206       .  T
C90          C91   1.206       .  T
C96          C97   1.401       .  A
C96         C101   1.402   1_545  A
C96         C104   1.440       .  S
C97          C98   1.399       .  A
C97         H106   1.083       .  S
C98          C99   1.401       .  A
C98         H107   1.083       .  S
C99         C100   1.401   1_545  A
C99         C102   1.440       .  S
C100        C101   1.399       .  A
C100        H108   1.083       .  S
C101        H109   1.083       .  S
C102        C103   1.206       .  T
C104        C105   1.206       .  T
C110        C111   1.402       .  A
C110        C115   1.402       .  A
C110        C212   1.440       .  S
C111        C112   1.401       .  A
C111        H116   1.084       .  S
C112        C113   1.400       .  A
C112        C154   1.463       .  S
C113        C114   1.400       .  A
C113        H117   1.085   1_545  S
C114        C115   1.401       .  A
C114        C155   1.463       .  S
C115        H118   1.084       .  S
C119        C120   1.401       .  A
C119        C124   1.402       .  A
C119        C214   1.440       .  S
C120        C121   1.401       .  A
C120        H125   1.084       .  S
C121        C122   1.400       .  A
C121        C189   1.462       .  S
C122        C123   1.400       .  A
C122        H126   1.085       .  S
C123        C124   1.402       .  A
C123        C190   1.463       .  S
C124        H127   1.084       .  S
C128        C129   1.402       .  A
C128        C133   1.402       .  A
C128        C198   1.440       .  S
C129        C130   1.401       .  A
C129        H134   1.084       .  S
C130        C131   1.400       .  A
C130        C177   1.462       .  S
C131        C132   1.400       .  A
C131        H135   1.085       .  S
C132        C133   1.402       .  A
C132        C176   1.463       .  S
C133        H136   1.084       .  S
C137        C138   1.402       .  A
C137        C142   1.402       .  A
C137        C200   1.440       .  S
C138        C139   1.402       .  A
C138        H143   1.084       .  S
C139        C140   1.400       .  A
C139        C166   1.463       .  S
C140        C141   1.400       .  A
C140        H144   1.085       .  S
C141        C142   1.401       .  A
C141        C165   1.463       .  S
C142        H145   1.084       .  S
N146        N147   1.320       .  A
N146        N152   1.316   1_545  A
N147        C154   1.351       .  A
N148        N150   1.316   1_565  A
N148        N149   1.321       .  A
N148       Mn164   2.202       .  S
N149        C155   1.351   1_565  A
N150        N151   1.320       .  A
N150       Mn175   2.199       .  S
N151        C155   1.351       .  A
N152        N153   1.320       .  A
N153        C154   1.351   1_565  A
N156        N162   1.316       .  A
N156        N157   1.320       .  A
N156       Mn186   2.200       .  S
N157        C165   1.351       .  A
N158        N159   1.320       .  A
N158        N160   1.316       .  A
N159        C166   1.351       .  A
N160        N161   1.321       .  A
N161        C166   1.351       .  A
N162        N163   1.320       .  A
N162       Mn164   2.201       .  S
N163        C165   1.351       .  A
Mn164       N261   2.201       .  S
Mn164       N267   2.200       .  S
Mn164      Cl188   2.548   1_565  S
N167        N168   1.321       .  A
N167        N173   1.316       .  A
N167       Mn175   2.202       .  S
N168        C176   1.351       .  A
N169        N171   1.316       .  A
N169        N170   1.320       .  A
N169       Mn187   2.200       .  S
N170        C177   1.351       .  A
N171        N172   1.320       .  A
N172        C177   1.351       .  A
N173        N174   1.320       .  A
N173       Mn296   2.200       .  S
N174        C176   1.351       .  A
Mn175       N255   2.201       .  S
Mn175       N280   2.200       .  S
Mn175      Cl188   2.548       .  S
N178        N179   1.320       .  A
N178        N184   1.316   1_565  A
N179        C189   1.350   1_565  A
N180        N181   1.320       .  A
N180        N182   1.316   1_545  A
N180       Mn296   2.201   1_655  S
N181        C190   1.351       .  A
N182        N183   1.321       .  A
N182       Mn186   2.202   1_655  S
N183        C190   1.351   1_565  A
N184        N185   1.320       .  A
N184       Mn187   2.201   1_655  S
N185        C189   1.351       .  A
Mn186       N269   2.202       .  S
Mn186       N287   2.199   1_455  S
Mn186      Cl188   2.548   1_565  S
Cl188      Mn296   2.548       .  S
C191        C192   1.401       .  A
C191        C196   1.401       .  A
C191        C199   1.440       .  S
C192        C193   1.399       .  A
C192        H201   1.083       .  S
C193        C194   1.401       .  A
C193        H202   1.083       .  S
C194        C195   1.401       .  A
C194        C197   1.440       .  S
C195        C196   1.399       .  A
C195        H203   1.083       .  S
C196        H204   1.083       .  S
C197        C198   1.206       .  T
C199        C200   1.206       .  T
C205        C206   1.401       .  A
C205        C210   1.402   1_545  A
C205        C213   1.440       .  S
C206        C207   1.399       .  A
C206        H215   1.083       .  S
C207        C208   1.401       .  A
C207        H216   1.083       .  S
C208        C209   1.401   1_545  A
C208        C211   1.440       .  S
C209        C210   1.399       .  A
C209        H217   1.083       .  S
C210        H218   1.083       .  S
C211        C212   1.206       .  T
C213        C214   1.206       .  T
C219        C220   1.402       .  A
C219        C224   1.402       .  A
C219        C321   1.440       .  S
C220        C221   1.401       .  A
C220        H225   1.084       .  S
C221        C222   1.400       .  A
C221        C263   1.463       .  S
C222        C223   1.400       .  A
C222        H226   1.085   1_545  S
C223        C224   1.401       .  A
C223        C264   1.463       .  S
C224        H227   1.084       .  S
C228        C229   1.401       .  A
C228        C233   1.402       .  A
C228        C323   1.440       .  S
C229        C230   1.401       .  A
C229        H234   1.084       .  S
C230        C231   1.400       .  A
C230        C298   1.462       .  S
C231        C232   1.400       .  A
C231        H235   1.085       .  S
C232        C233   1.402       .  A
C232        C299   1.463       .  S
C233        H236   1.084       .  S
C237        C238   1.402       .  A
C237        C242   1.402       .  A
C237        C307   1.440       .  S
C238        C239   1.401       .  A
C238        H243   1.084       .  S
C239        C240   1.400       .  A
C239        C286   1.462       .  S
C240        C241   1.400       .  A
C240        H244   1.085       .  S
C241        C242   1.402       .  A
C241        C285   1.463       .  S
C242        H245   1.084       .  S
C246        C247   1.402       .  A
C246        C251   1.402       .  A
C246        C309   1.440       .  S
C247        C248   1.402       .  A
C247        H252   1.084       .  S
C248        C249   1.400       .  A
C248        C275   1.463       .  S
C249        C250   1.400       .  A
C249        H253   1.085       .  S
C250        C251   1.401       .  A
C250        C274   1.463       .  S
C251        H254   1.084       .  S
N255        N256   1.320       .  A
N255        N261   1.316   1_545  A
N256        C263   1.351       .  A
N257        N259   1.316   1_565  A
N257        N258   1.321       .  A
N257       Mn273   2.202       .  S
N258        C264   1.351   1_565  A
N259        N260   1.320       .  A
N259       Mn284   2.199       .  S
N260        C264   1.351       .  A
N261        N262   1.320       .  A
N262        C263   1.351   1_565  A
N265        N271   1.316       .  A
N265        N266   1.320       .  A
N265       Mn295   2.200       .  S
N266        C274   1.351       .  A
N267        N268   1.320       .  A
N267        N269   1.316       .  A
N268        C275   1.351       .  A
N269        N270   1.321       .  A
N270        C275   1.351       .  A
N271        N272   1.320       .  A
N271       Mn273   2.201       .  S
N272        C274   1.351       .  A
Mn273      Cl297   2.548   1_565  S
N276        N277   1.321       .  A
N276        N282   1.316       .  A
N276       Mn284   2.202       .  S
N277        C285   1.351       .  A
N278        N280   1.316       .  A
N278        N279   1.320       .  A
N278       Mn296   2.200       .  S
N279        C286   1.351       .  A
N280        N281   1.320       .  A
N281        C286   1.351       .  A
N282        N283   1.320       .  A
N283        C285   1.351       .  A
Mn284      Cl297   2.548       .  S
N287        N288   1.320       .  A
N287        N293   1.316   1_565  A
N288        C298   1.350   1_565  A
N289        N290   1.320       .  A
N289        N291   1.316   1_545  A
N290        C299   1.351       .  A
N291        N292   1.321       .  A
N291       Mn295   2.202   1_655  S
N292        C299   1.351   1_565  A
N293        N294   1.320       .  A
N293       Mn296   2.201   1_655  S
N294        C298   1.351       .  A
Mn295      Cl297   2.548   1_565  S
C300        C301   1.401       .  A
C300        C305   1.401       .  A
C300        C308   1.440       .  S
C301        C302   1.399       .  A
C301        H310   1.083       .  S
C302        C303   1.401       .  A
C302        H311   1.083       .  S
C303        C304   1.401       .  A
C303        C306   1.440       .  S
C304        C305   1.399       .  A
C304        H312   1.083       .  S
C305        H313   1.083       .  S
C306        C307   1.206       .  T
C308        C309   1.206       .  T
C314        C315   1.401       .  A
C314        C319   1.402   1_545  A
C314        C322   1.440       .  S
C315        C316   1.399       .  A
C315        H324   1.083       .  S
C316        C317   1.401       .  A
C316        H325   1.083       .  S
C317        C318   1.401   1_545  A
C317        C320   1.440       .  S
C318        C319   1.399       .  A
C318        H326   1.083       .  S
C319        H327   1.083       .  S
C320        C321   1.206       .  T
C322        C323   1.206       .  T
