geometry optimzed in LAMMPS
_audit_creation_date              2020-11-30 
_audit_creation_method            'lammps2cif' 
_symmetry_space_group_name_H-M    'P1' 
_symmetry_Int_Tables_number       1 
_symmetry_cell_setting            triclinic 
loop_ 
_symmetry_equiv_pos_as_xyz 
  x,y,z 
_cell_length_a                    25.7915443 
_cell_length_b                    26.354348261843462 
_cell_length_c                    28.44622546638111 
_cell_angle_alpha                 88.74958135566528 
_cell_angle_beta                  91.30061982964222 
_cell_angle_gamma                 117.94779601061657 
loop_ 
_atom_site_label 
_atom_site_type_symbol 
_atom_site_fract_x 
_atom_site_fract_y 
_atom_site_fract_z 
_atom_site_charge 
C1          C  0.82854499  0.24636876  0.03284125     0.83000
N2          N  0.86052139  0.21832991  0.04125461    -0.75300
C3          C  0.85621817  0.17662163  0.01185789     0.85500
N4          N  0.80539782  0.16754883  0.48128329    -0.75200
C5          C  0.77271502  0.19547929  0.47640577     0.85600
N6          N  0.78091250  0.23782766  0.50660061    -0.76900
C7          C  0.08103278  0.34985260  0.47021963     0.83000
N8          N  0.10917492  0.38320037  0.99815775    -0.75300
C9          C  0.11842895  0.34920318  0.03000043     0.85500
N10         N  0.08977348  0.29118426  0.02518988    -0.75200
C11         C  0.05183389  0.26718027  0.98833696     0.85600
N12         N  0.05407997  0.29194239  0.47721897    -0.76900
C13         C  0.26421387  0.22542169  0.46491928     0.83000
N14         N  0.20501495  0.20177737  0.46066577    -0.75300
C15         C  0.18337127  0.16886023  0.99065756     0.85500
N16         N  0.21188601  0.15516087  0.02546157    -0.75200
C17         C  0.27146101  0.18216458  0.02759147     0.85600
N18         N  0.30266758  0.22280716  0.99498666    -0.76900
C19         C  0.14581494  0.92317406  0.46388535     0.83000
N20         N  0.11708750  0.95515557  0.46154224    -0.75300
C21         C  0.09158833  0.94293684  0.00026202     0.85500
N22         N  0.07362631  0.90012764  0.03336704    -0.75200
C23         C  0.10108483  0.86701404  0.03802510     0.85600
N24         N  0.14641726  0.87658882  0.00960071    -0.76900
C25         C  0.75128227  0.72564971  0.04243684     0.83000
N26         N  0.76680772  0.70310185  0.00636212    -0.75300
C27         C  0.82257930  0.72977223  0.46743236     0.85500
N28         N  0.85394663  0.78779656  0.46470517    -0.75200
C29         C  0.82403824  0.81826702  0.02123352     0.85600
N30         N  0.77978761  0.78306919  0.04983898    -0.76900
C31         C  0.64452976  0.91255835  0.03009814     0.83000
N32         N  0.70374423  0.93738632  0.02504818    -0.75300
C33         C  0.72717856  0.92083293  0.98969638     0.85500
N34         N  0.68045028  0.87385987  0.45608885    -0.75200
C35         C  0.62098066  0.84727993  0.45864580     0.85600
N36         N  0.60875547  0.87120378  0.99988492    -0.76900
C37         C  0.89464442  0.01396528  0.00692635     0.05100
C38         C  0.92555213  0.07467685  0.00510326     0.05100
C39         C  0.98775952  0.10353140  0.00966027     0.05100
C40         C  0.01880094  0.07110513  0.01393714     0.05100
C41         C  0.98776383  0.01020603  0.01354403     0.05100
C42         C  0.92586548  0.98167316  0.00913280     0.05100
O43         O  0.03401602  0.53454449  0.28643072    -0.55000
C44         C  0.00609581  0.64510824  0.19014534     0.77600
O45         O  0.86419217  0.46649099  0.21325600    -0.56200
C46         C  0.00149634  0.49180244  0.31196860     0.77600
C47         C  0.89685579  0.58829424  0.31503692     0.80000
Cd48       Cd  0.95074932  0.54581234  0.25097411     1.37500
O49         O  0.03663337  0.63159106  0.21821184    -0.55000
O50         O  0.95168768  0.60638030  0.31479575    -0.53800
C51         C  0.89442721  0.45528106  0.18483839     0.79900
O52         O  0.86589270  0.54949790  0.28609543    -0.56200
O53         O  0.95125974  0.61296510  0.18996619    -0.54600
O54         O  0.94698498  0.47531889  0.30989882    -0.54600
O55         O  0.94949197  0.48596029  0.18670992    -0.53800
O56         O  0.54197445  0.12973069  0.28715959    -0.56800
C57         C  0.41237889  0.09732754  0.18438568     0.77600
O58         O  0.46733688  0.96350349  0.21268650    -0.56200
C59         C  0.55587436  0.10029210  0.31558450     0.77600
C60         C  0.36321055  0.99223507  0.31242338     0.80000
Cd61       Cd  0.46055192  0.04525550  0.24949870     1.37500
O62         O  0.45661866  0.12808306  0.20982530    -0.55000
O63         O  0.39442008  0.04602453  0.30912876    -0.53800
C64         C  0.51113225  0.99538004  0.18771708     0.79900
O65         O  0.37683421  0.96152384  0.28694378    -0.56200
O66         O  0.39145178  0.04349636  0.18846502    -0.54600
O67         O  0.52578913  0.04627723  0.31377277    -0.54600
O68         O  0.53052022  0.04895768  0.19098553    -0.53800
O69         O  0.34043058  0.52757173  0.21461763    -0.55000
C70         C  0.47624198  0.63197479  0.31025068     0.77600
O71         O  0.44200886  0.45333586  0.28636964    -0.56200
C72         C  0.33136564  0.48578615  0.18848163     0.77600
C73         C  0.52757249  0.57712230  0.18461239     0.80000
Cd74       Cd  0.43309108  0.53463918  0.24943259     1.37500
O75         O  0.43069352  0.61884546  0.28501437    -0.55000
O76         O  0.49232186  0.59785639  0.18640343    -0.53800
C77         C  0.40105342  0.44155834  0.31512700     0.79900
O78         O  0.51884593  0.53555703  0.21212172    -0.56200
O79         O  0.50068345  0.60036832  0.30759885    -0.54600
O80         O  0.36907265  0.46797636  0.19005772    -0.54600
O81         O  0.37632607  0.47313312  0.31410313    -0.53800
C82         C  0.79136069  0.94682600  0.98321119    -0.13600
C83         C  0.82974669  0.98622554  0.01264591    -0.28800
H84         H  0.79761634  0.92916589  0.45744540     0.15400
H85         H  0.81354743  0.00185232  0.04088188     0.16000
C86         C  0.61913472  0.92985292  0.06708510    -0.15700
C87         C  0.59452362  0.94264539  0.09665289     0.08400
C88         C  0.56388221  0.95759857  0.12975417     0.10200
C89         C  0.53833985  0.97252714  0.15683016    -0.16500
C90         C  0.58602260  0.80295242  0.42600811    -0.15700
C91         C  0.55700308  0.76532445  0.39880183     0.08400
C92         C  0.52472294  0.72032161  0.36720495     0.10200
C93         C  0.50009631  0.68067327  0.34070498    -0.16500
C94         C  0.85381728  0.88079260  0.02989851    -0.13600
C95         C  0.89579654  0.91840521  0.00166491    -0.28800
H96         H  0.84022184  0.89642445  0.05979486     0.15400
H97         H  0.91128773  0.90269303  0.97300974     0.16000
C98         C  0.70433583  0.68880024  0.07249298    -0.15700
C99         C  0.66435970  0.65866735  0.09766018     0.08400
C100        C  0.61695987  0.62575084  0.12736621     0.10200
C101        C  0.57609637  0.60104600  0.15323495    -0.16500
C102        C  0.83150412  0.69501391  0.43386185    -0.15700
C103        C  0.84084330  0.66663503  0.40602124     0.08400
C104        C  0.85517885  0.63548801  0.37380669     0.10200
C105        C  0.87154011  0.61178098  0.34665693    -0.16500
C106        C  0.01864311  0.97474926  0.02126045    -0.13600
C107        C  0.06265544  0.97968548  0.99401271    -0.28800
H108        H  0.00154173  0.94108973  0.04802809     0.15400
H109        H  0.05475240  0.01182602  0.46063443     0.16000
C110        C  0.03183329  0.69481666  0.15966867    -0.15700
C111        C  0.04938760  0.73561662  0.13303121     0.08400
C112        C  0.06730626  0.78236285  0.10087360     0.10200
C113        C  0.08216671  0.82144915  0.07267327    -0.16500
C114        C  0.19037655  0.93245395  0.43035978    -0.15700
C115        C  0.22848039  0.94094687  0.40269846     0.08400
C116        C  0.27416853  0.95338169  0.37068778     0.10200
C117        C  0.31427064  0.96799955  0.34372299    -0.16500
C118        C  0.08406880  0.10064231  0.01910346    -0.13600
C119        C  0.11862096  0.14012502  0.98750703    -0.28800
H120        H  0.10361290  0.08680761  0.04749033     0.15400
H121        H  0.08856141  0.14651219  0.45405342     0.16000
C122        C  0.30180896  0.16712705  0.06364050    -0.15700
C123        C  0.32889124  0.15455567  0.09253694     0.08400
C124        C  0.36073376  0.13841736  0.12515219     0.10200
C125        C  0.38616949  0.12185054  0.15240641    -0.16500
C126        C  0.38199214  0.39371473  0.34710893    -0.15700
C127        C  0.36032104  0.35356228  0.37402415     0.08400
C128        C  0.32982155  0.30747604  0.40547702     0.10200
C129        C  0.30082095  0.26928228  0.43245565    -0.16500
C130        C  0.01939234  0.20417811  0.98244966    -0.13600
C131        C  0.02080845  0.16715271  0.01501834    -0.28800
H132        H  0.99265067  0.18770188  0.95084510     0.15400
H133        H  0.04924645  0.18345261  0.04578500     0.16000
C134        C  0.28057645  0.45884886  0.15821831    -0.15700
C135        C  0.24013993  0.43275755  0.13141343     0.08400
C136        C  0.19540967  0.40097714  0.09829324     0.10200
C137        C  0.15922933  0.37533726  0.06823397    -0.16500
C138        C  0.06405768  0.37537842  0.43171451    -0.15700
C139        C  0.05237868  0.40155726  0.40162499     0.08400
C140        C  0.03885438  0.43473993  0.36868107     0.10200
C141        C  0.02456626  0.46245203  0.34209022    -0.16500
C142        C  0.89156954  0.14673039  0.02242304    -0.13600
C143        C  0.89120945  0.10620919  0.99447603    -0.28800
H144        H  0.91873418  0.15843138  0.05412033     0.15400
H145        H  0.84150654  0.09288824  0.46777171     0.16000
C146        C  0.83338233  0.29017693  0.06427871    -0.15700
C147        C  0.84001559  0.32718265  0.09147776     0.08400
C148        C  0.85234802  0.37109061  0.12402432     0.10200
C149        C  0.86820277  0.40928898  0.15201933    -0.16500
C150        C  0.60397841  0.12657501  0.34845416    -0.15700
C151        C  0.64401646  0.14543679  0.37665223     0.08400
C152        C  0.69009955  0.16463910  0.41042703     0.10200
C153        C  0.72843668  0.17930674  0.44005323    -0.16500
C154        C  0.82183743  0.25237406  0.54156869     0.83000
N155        N  0.85457546  0.22449222  0.54636259    -0.75300
C156        C  0.84653604  0.18198138  0.51628281     0.85500
N157        N  0.81933470  0.16302586  0.97371202    -0.75200
C158        C  0.78730771  0.19125016  0.96525158     0.85600
N159        N  0.79195522  0.23280914  0.99492470    -0.76900
C160        C  0.07152700  0.35955399  0.96149603     0.83000
N161        N  0.12406005  0.38450193  0.50023229    -0.75300
C162        C  0.14028926  0.36166434  0.53721115     0.85500
N163        N  0.11345232  0.30396120  0.54433338    -0.75200
C164        C  0.07034421  0.26878684  0.51443122     0.85600
N165        N  0.04291592  0.30166612  0.95657569    -0.76900
C166        C  0.27449944  0.23658547  0.96022659     0.83000
N167        N  0.21494232  0.20964769  0.95807109    -0.75300
C168        C  0.16996620  0.16142821  0.49208992     0.85500
N169        N  0.19472946  0.14463802  0.52796112    -0.75200
C170        C  0.25415261  0.16829762  0.53208658     0.85600
N171        N  0.28872364  0.20872052  0.50057778    -0.76900
C172        C  0.16438321  0.91916938  0.97665031     0.83000
N173        N  0.13696083  0.95213065  0.97201664    -0.75300
C174        C  0.07520219  0.94669026  0.49341726     0.85500
N175        N  0.06221139  0.90588187  0.52766502    -0.75200
C176        C  0.09093481  0.87393156  0.53002058     0.85600
N177        N  0.13267993  0.88256549  0.49813230    -0.76900
C178        C  0.77555607  0.73738514  0.53457747     0.83000
N179        N  0.78347182  0.70460570  0.50235089    -0.75300
C180        C  0.81089999  0.73784845  0.97756798     0.85500
N181        N  0.83955393  0.79543977  0.98493163    -0.75200
C182        C  0.84628365  0.82098517  0.49679773     0.85600
N183        N  0.80685737  0.79559469  0.53185837    -0.76900
C184        C  0.62734776  0.90439265  0.52299621     0.83000
N185        N  0.68676053  0.93107994  0.52034016    -0.75300
C186        C  0.71360190  0.91594828  0.48685348     0.85500
N187        N  0.69097923  0.87939431  0.95973853    -0.75200
C188        C  0.63196965  0.85466624  0.96475130     0.85600
N189        N  0.59448641  0.86253258  0.49212532    -0.76900
C190        C  0.87869532  0.01588883  0.50931543     0.05100
C191        C  0.90971380  0.07615730  0.50295628     0.05100
C192        C  0.97197249  0.10493043  0.50351413     0.05100
C193        C  0.00311820  0.07292916  0.51140630     0.05100
C194        C  0.97183869  0.01217298  0.51564910     0.05100
C195        C  0.90964543  0.98377520  0.51522406     0.05100
O196        O  0.02929026  0.55934838  0.78933012    -0.55000
C197        C  0.99979316  0.65999538  0.68808501     0.77600
O198        O  0.85967259  0.48074236  0.71532175    -0.56200
C199        C  0.99785550  0.51648750  0.81512841     0.77600
C200        C  0.89248503  0.61089435  0.81501798     0.80000
Cd201      Cd  0.94433678  0.56444545  0.75164972     1.37500
O202        O  0.03016479  0.64596208  0.71582905    -0.55000
O203        O  0.94722294  0.62901391  0.81312937    -0.53800
C204        C  0.89124330  0.46952780  0.68826546     0.79900
O205        O  0.86033151  0.57042772  0.78769588    -0.56200
O206        O  0.94463549  0.62997858  0.68948315    -0.54600
O207        O  0.94291693  0.49724962  0.81229854    -0.54600
O208        O  0.94591286  0.50238672  0.68983668    -0.53800
O209        O  0.55225338  0.13411127  0.78016545    -0.56800
C210        C  0.40353036  0.09258425  0.68880838     0.77600
O211        O  0.46457718  0.96476551  0.71156782    -0.56200
C212        C  0.56885283  0.10509204  0.80678971     0.77600
C213        C  0.37750087  0.99568752  0.82109756     0.80000
Cd214      Cd  0.46406779  0.04812818  0.74963995     1.37500
O215        O  0.44843627  0.12642823  0.71234728    -0.55000
O216        O  0.40504395  0.04948428  0.81494061    -0.53800
C217        C  0.50484162  0.99509487  0.68310270     0.79900
O218        O  0.38987818  0.96508386  0.79446752    -0.56200
O219        O  0.38747675  0.03951240  0.69307284    -0.54600
O220        O  0.53739368  0.05121023  0.80704891    -0.54600
O221        O  0.52545202  0.04896498  0.68515113    -0.53800
O222        O  0.37297535  0.55115189  0.70967443    -0.55000
C223        C  0.49527431  0.64249163  0.81393418     0.77600
O224        O  0.46204633  0.46613924  0.78489450    -0.56200
C225        C  0.36488978  0.51155375  0.68143084     0.77600
C226        C  0.56109294  0.60048069  0.68850482     0.80000
Cd227      Cd  0.46025368  0.55163114  0.74786052     1.37500
O228        O  0.45447829  0.63298155  0.78426987    -0.55000
O229        O  0.52732927  0.62261936  0.69238067    -0.53800
C230        C  0.41670103  0.45273688  0.80913077     0.79900
O231        O  0.54860729  0.55478320  0.71185077    -0.56200
O232        O  0.51885887  0.60992382  0.81342520    -0.54600
O233        O  0.40142055  0.49224731  0.68295573    -0.54600
O234        O  0.39272611  0.48485295  0.80537092    -0.53800
C235        C  0.77827723  0.94416740  0.48377013    -0.13600
C236        C  0.81338001  0.98737902  0.51212974    -0.28800
H237        H  0.80745025  0.93305305  0.95367941     0.15400
H238        H  0.79423008  0.00468642  0.53667665     0.16000
C239        C  0.59918785  0.92060187  0.55828248    -0.15700
C240        C  0.57543573  0.93460859  0.58755078     0.08400
C241        C  0.54835246  0.95242882  0.62139770     0.10200
C242        C  0.52693448  0.97000965  0.64988990    -0.16500
C243        C  0.59442000  0.81033003  0.93323824    -0.15700
C244        C  0.56579891  0.77247365  0.90619637     0.08400
C245        C  0.53630788  0.72753963  0.87409585     0.10200
C246        C  0.51508439  0.68876479  0.84653555    -0.16500
C247        C  0.88109064  0.88401845  0.49263363    -0.13600
C248        C  0.87626903  0.92035806  0.52243007    -0.28800
H249        H  0.91119239  0.90131095  0.46343121     0.15400
H250        H  0.84410940  0.90382770  0.55024866     0.16000
C251        C  0.73358182  0.70992175  0.57111509    -0.15700
C252        C  0.69672628  0.68389760  0.60009741     0.08400
C253        C  0.65162637  0.65234743  0.63233495     0.10200
C254        C  0.61126995  0.62678627  0.65865162    -0.16500
C255        C  0.82717425  0.71300339  0.93978532    -0.15700
C256        C  0.83916016  0.68904353  0.90944914     0.08400
C257        C  0.85361556  0.65975255  0.87522274     0.10200
C258        C  0.86871514  0.63584404  0.84703852    -0.16500
C259        C  0.00398347  0.97768057  0.52125297    -0.13600
C260        C  0.04434015  0.98181947  0.49007577    -0.28800
H261        H  0.99114394  0.94583468  0.54946707     0.15400
H262        H  0.07765401  0.01144218  0.96569726     0.16000
C263        C  0.02628853  0.70801394  0.65625080    -0.15700
C264        C  0.04484367  0.74758985  0.62853706     0.08400
C265        C  0.06304381  0.79275411  0.59507464     0.10200
C266        C  0.07647903  0.83031664  0.56574310    -0.16500
C267        C  0.21194356  0.92918327  0.94620057    -0.15700
C268        C  0.25109151  0.93959947  0.91915907     0.08400
C269        C  0.29592875  0.95471508  0.88590554     0.10200
C270        C  0.33349945  0.97103074  0.85652737    -0.16500
C271        C  0.06806413  0.10168743  0.51862150    -0.13600
C272        C  0.10559722  0.13638236  0.48617717    -0.28800
H273        H  0.08500116  0.08974924  0.54990052     0.15400
H274        H  0.09857578  0.15152809  0.95791281     0.16000
C275        C  0.28121541  0.15092207  0.56943176    -0.15700
C276        C  0.30826612  0.13891765  0.59890903     0.08400
C277        C  0.34250626  0.12571700  0.63163528     0.10200
C278        C  0.37158957  0.11276450  0.65834239    -0.16500
C279        C  0.39259073  0.40321039  0.83970326    -0.15700
C280        C  0.36798377  0.36299129  0.86628771     0.08400
C281        C  0.33610517  0.31760812  0.89820180     0.10200
C282        C  0.30785773  0.28009317  0.92608987    -0.16500
C283        C  0.04190692  0.20606386  0.52335063    -0.13600
C284        C  0.00301004  0.16792754  0.49326327    -0.28800
H285        H  0.05319451  0.19076177  0.55578980     0.15400
H286        H  0.98977273  0.18317383  0.46175727     0.16000
C287        C  0.31556145  0.48786717  0.64971060    -0.15700
C288        C  0.27417008  0.46274038  0.62368375     0.08400
C289        C  0.22646255  0.42914504  0.59378126     0.10200
C290        C  0.18658662  0.39857905  0.56824565    -0.16500
C291        C  0.06116344  0.39592230  0.92861147    -0.15700
C292        C  0.05172104  0.42698182  0.90207842     0.08400
C293        C  0.03815573  0.46223406  0.87170709     0.10200
C294        C  0.02265416  0.48953546  0.84588636    -0.16500
C295        C  0.88229995  0.15184903  0.52244730    -0.13600
C296        C  0.87565745  0.10839335  0.49481827    -0.28800
H297        H  0.91432000  0.16503647  0.55111918     0.15400
H298        H  0.86187948  0.09246257  0.96404098     0.16000
C299        C  0.83058700  0.29734842  0.57343549    -0.15700
C300        C  0.83917281  0.33562588  0.60003116     0.08400
C301        C  0.85205412  0.38133684  0.63103082     0.10200
C302        C  0.86698466  0.42122890  0.65733858    -0.16500
C303        C  0.62095280  0.13130814  0.83589147    -0.15700
C304        C  0.66284043  0.14805552  0.86238061     0.08400
C305        C  0.70933275  0.16377612  0.89568293     0.10200
C306        C  0.74649446  0.17597289  0.92618548    -0.16500
loop_ 
_geom_bond_atom_site_label_1 
_geom_bond_atom_site_label_2 
_geom_bond_distance 
_geom_bond_site_symmetry_2 
_ccdc_geom_bond_type 
C1            N2   1.356       .  A
C1          N159   1.355   1_554  A
C1          C146   1.433       .  S
N2            C3   1.357       .  A
C3          N157   1.364   1_554  A
C3          C142   1.481       .  S
N4            C5   1.358       .  A
N4          C156   1.361       .  A
C5            N6   1.357       .  A
C5          C153   1.437       .  S
N6          C154   1.357       .  A
C7           N12   1.360       .  A
C7          N161   1.355       .  A
C7          C138   1.437       .  S
N8            C9   1.355   1_556  A
N8          C160   1.354       .  A
C9           N10   1.359       .  A
C9          C137   1.437       .  S
N10          C11   1.363   1_554  A
C11         N165   1.359       .  A
C11         C130   1.479       .  S
N12         C164   1.364       .  A
C13          N14   1.355       .  A
C13         N171   1.354       .  A
C13         C129   1.432       .  S
N14         C168   1.357       .  A
C15          N16   1.361   1_556  A
C15         N167   1.359       .  A
C15         C119   1.477       .  S
N16          C17   1.358       .  A
C17          N18   1.356   1_554  A
C17         C122   1.435       .  S
N18         C166   1.355       .  A
C19          N20   1.358       .  A
C19         N177   1.356       .  A
C19         C114   1.437       .  S
N20         C174   1.360       .  A
C21          N22   1.363       .  A
C21         N173   1.357   1_554  A
C21         C107   1.480   1_554  S
N22          C23   1.360       .  A
C23          N24   1.357       .  A
C23         C113   1.440       .  S
N24         C172   1.356   1_554  A
C25          N26   1.355       .  A
C25          N30   1.356       .  A
C25          C98   1.431       .  S
N26         C180   1.355   1_554  A
C27          N28   1.355       .  A
C27         N179   1.354       .  A
C27         C102   1.432       .  S
N28         C182   1.357       .  A
C29          N30   1.357       .  A
C29         N181   1.364   1_554  A
C29          C94   1.479       .  S
C31          N32   1.360       .  A
C31          N36   1.357   1_554  A
C31          C86   1.441       .  S
N32          C33   1.364   1_554  A
C33         N187   1.356       .  A
C33          C82   1.480       .  S
N34          C35   1.358       .  A
N34         C186   1.359       .  A
C35         N189   1.356       .  A
C35          C90   1.436       .  S
N36         C188   1.356       .  A
C37          C83   1.491   1_545  S
C37          C38   1.415       .  A
C37          C42   1.419   1_545  A
C38         C143   1.494   1_554  S
C38          C39   1.421       .  A
C39         C131   1.492   1_655  S
C39          C40   1.421   1_655  A
C40         C118   1.492       .  S
C40          C41   1.419   1_455  A
C41         C106   1.495   1_645  S
C41          C42   1.414   1_545  A
C42          C95   1.491       .  S
O43          C46   1.267       .  A
O43         Cd48   2.491   1_455  S
C44         C110   1.439       .  S
C44          O53   1.263   1_455  A
C44          O49   1.268       .  A
O45          C51   1.266       .  A
O45         Cd48   2.474       .  S
C46         C141   1.437       .  S
C46          O54   1.262   1_455  A
C47         C105   1.431       .  S
C47          O52   1.266       .  A
C47          O50   1.263       .  A
Cd48         O55   2.430       .  S
Cd48         O54   2.444       .  S
Cd48         O53   2.447       .  S
Cd48         O49   2.489   1_655  S
Cd48         O52   2.470       .  S
Cd48         O50   2.436       .  S
C51         C149   1.432       .  S
C51          O55   1.263       .  A
O56          C59   1.267       .  A
O56         Cd61   2.477       .  S
C57         C125   1.435       .  S
C57          O66   1.263       .  A
C57          O62   1.266       .  A
O58          C64   1.268       .  A
O58         Cd61   2.496   1_565  S
C59         C150   1.436       .  S
C59          O67   1.264       .  A
C60         C117   1.437       .  S
C60          O65   1.268       .  A
C60          O63   1.263   1_565  A
Cd61         O68   2.450       .  S
Cd61         O67   2.448       .  S
Cd61         O66   2.445       .  S
Cd61         O62   2.479       .  S
Cd61         O65   2.490   1_545  S
Cd61         O63   2.440       .  S
C64          C89   1.440       .  S
C64          O68   1.263   1_565  A
O69          C72   1.268       .  A
O69         Cd74   2.492       .  S
C70          C93   1.435       .  S
C70          O79   1.263       .  A
C70          O75   1.268       .  A
O71          C77   1.266       .  A
O71         Cd74   2.470       .  S
C72         C134   1.437       .  S
C72          O80   1.262       .  A
C73         C101   1.431       .  S
C73          O78   1.266       .  A
C73          O76   1.264       .  A
Cd74         O81   2.434       .  S
Cd74         O80   2.439       .  S
Cd74         O79   2.437       .  S
Cd74         O75   2.486       .  S
Cd74         O78   2.465       .  S
Cd74         O76   2.436       .  S
C77         C126   1.431       .  S
C77          O81   1.263       .  A
C82          C83   1.340   1_556  D
C82         H237   1.086       .  S
C83          H85   1.086   1_565  S
H84         C235   1.087       .  S
C86          C87   1.209       .  T
C87          C88   1.417       .  S
C88          C89   1.209       .  T
C90          C91   1.206       .  T
C91          C92   1.412       .  S
C92          C93   1.206       .  T
C94          C95   1.341       .  D
C94          H96   1.086       .  S
C95          H97   1.086   1_554  S
C98          C99   1.203       .  T
C99         C100   1.408       .  S
C100        C101   1.203       .  T
C102        C103   1.203       .  T
C103        C104   1.408       .  S
C104        C105   1.203       .  T
C106        C107   1.343   1_554  D
C106        H108   1.086       .  S
C107        H262   1.086   1_565  S
H109        C260   1.087   1_545  S
C110        C111   1.208       .  T
C111        C112   1.416       .  S
C112        C113   1.208       .  T
C114        C115   1.207       .  T
C115        C116   1.414       .  S
C116        C117   1.207       .  T
C118        C119   1.346   1_554  D
C118        H120   1.086       .  S
C119        H274   1.087       .  S
H121        C272   1.086       .  S
C122        C123   1.205       .  T
C123        C124   1.411       .  S
C124        C125   1.205       .  T
C126        C127   1.203       .  T
C127        C128   1.408       .  S
C128        C129   1.203       .  T
C130        C131   1.343   1_556  D
C130        H132   1.087   1_455  S
C131        H133   1.086       .  S
C134        C135   1.207       .  T
C135        C136   1.414       .  S
C136        C137   1.207       .  T
C138        C139   1.207       .  T
C139        C140   1.414       .  S
C140        C141   1.207       .  T
C142        C143   1.342   1_554  D
C142        H144   1.086       .  S
C143        H298   1.086       .  S
H145        C296   1.086       .  S
C146        C147   1.204       .  T
C147        C148   1.409       .  S
C148        C149   1.204       .  T
C150        C151   1.206       .  T
C151        C152   1.413       .  S
C152        C153   1.206       .  T
C154        N155   1.358       .  A
C154        C299   1.437       .  S
N155        C156   1.359       .  A
C156        C295   1.478       .  S
N157        C158   1.361       .  A
C158        N159   1.356       .  A
C158        C306   1.440       .  S
C160        N165   1.357       .  A
C160        C291   1.433       .  S
N161        C162   1.354       .  A
C162        N163   1.356       .  A
C162        C290   1.433       .  S
N163        C164   1.358       .  A
C164        C283   1.479       .  S
C166        N167   1.357       .  A
C166        C282   1.436       .  S
C168        N169   1.364       .  A
C168        C272   1.478       .  S
N169        C170   1.360       .  A
C170        N171   1.356       .  A
C170        C275   1.439       .  S
C172        N173   1.356       .  A
C172        C267   1.435       .  S
C174        N175   1.360       .  A
C174        C260   1.478       .  S
N175        C176   1.357       .  A
C176        N177   1.356       .  A
C176        C266   1.434       .  S
C178        N179   1.355       .  A
C178        N183   1.359       .  A
C178        C251   1.435       .  S
C180        N181   1.360       .  A
C180        C255   1.438       .  S
C182        N183   1.362       .  A
C182        C247   1.476       .  S
C184        N185   1.357       .  A
C184        N189   1.356       .  A
C184        C239   1.435       .  S
N185        C186   1.360       .  A
C186        C235   1.478       .  S
N187        C188   1.356       .  A
C188        C243   1.433       .  S
C190        C236   1.492   1_545  S
C190        C191   1.414       .  A
C190        C195   1.415   1_545  A
C191        C296   1.493       .  S
C191        C192   1.418       .  A
C192        C284   1.492   1_655  S
C192        C193   1.423   1_655  A
C193        C271   1.491       .  S
C193        C194   1.419   1_455  A
C194        C259   1.494   1_645  S
C194        C195   1.417   1_545  A
C195        C248   1.490       .  S
O196        C199   1.267   1_455  A
O196       Cd201   2.476   1_455  S
C197        C263   1.434   1_655  S
C197        O206   1.264       .  A
C197        O202   1.266   1_655  A
O198        C204   1.268       .  A
O198       Cd201   2.487       .  S
C199        C294   1.433   1_655  S
C199        O207   1.263       .  A
C200        C258   1.438       .  S
C200        O205   1.268       .  A
C200        O203   1.263       .  A
Cd201       O208   2.441       .  S
Cd201       O207   2.434       .  S
Cd201       O206   2.442       .  S
Cd201       O202   2.470   1_655  S
Cd201       O205   2.490       .  S
Cd201       O203   2.442       .  S
C204        C302   1.436       .  S
C204        O208   1.263       .  A
O209        C212   1.268       .  A
O209       Cd214   2.495       .  S
C210        C278   1.439       .  S
C210        O219   1.263       .  A
C210        O215   1.268       .  A
O211        C217   1.267       .  A
O211       Cd214   2.476   1_565  S
C212        C303   1.440       .  S
C212        O220   1.263       .  A
C213        C270   1.435       .  S
C213        O218   1.267       .  A
C213        O216   1.263   1_565  A
Cd214       O221   2.443       .  S
Cd214       O220   2.444       .  S
Cd214       O219   2.448       .  S
Cd214       O215   2.492       .  S
Cd214       O218   2.478   1_545  S
Cd214       O216   2.440       .  S
C217        C242   1.435       .  S
C217        O221   1.263   1_565  A
O222        C225   1.266       .  A
O222       Cd227   2.472       .  S
C223        C246   1.433       .  S
C223        O232   1.264       .  A
C223        O228   1.266       .  A
O224        C230   1.268       .  A
O224       Cd227   2.486       .  S
C225        C287   1.432       .  S
C225        O233   1.263       .  A
C226        C254   1.435       .  S
C226        O231   1.267       .  A
C226        O229   1.263       .  A
Cd227       O234   2.437       .  S
Cd227       O233   2.436       .  S
Cd227       O232   2.438       .  S
Cd227       O228   2.469       .  S
Cd227       O231   2.485       .  S
Cd227       O229   2.438       .  S
C230        C279   1.436       .  S
C230        O234   1.262       .  A
C235        C236   1.345       .  D
C236        H238   1.086   1_565  S
C239        C240   1.206       .  T
C240        C241   1.412       .  S
C241        C242   1.206       .  T
C243        C244   1.204       .  T
C244        C245   1.409       .  S
C245        C246   1.204       .  T
C247        C248   1.343       .  D
C247        H249   1.087       .  S
C248        H250   1.086       .  S
C251        C252   1.206       .  T
C252        C253   1.412       .  S
C253        C254   1.206       .  T
C255        C256   1.207       .  T
C256        C257   1.415       .  S
C257        C258   1.207       .  T
C259        C260   1.347       .  D
C259        H261   1.086   1_455  S
C263        C264   1.205       .  T
C264        C265   1.411       .  S
C265        C266   1.205       .  T
C267        C268   1.205       .  T
C268        C269   1.411       .  S
C269        C270   1.205       .  T
C271        C272   1.341       .  D
C271        H273   1.086       .  S
C275        C276   1.208       .  T
C276        C277   1.416       .  S
C277        C278   1.208       .  T
C279        C280   1.206       .  T
C280        C281   1.413       .  S
C281        C282   1.206       .  T
C283        C284   1.343       .  D
C283        H285   1.087       .  S
C284        H286   1.086   1_455  S
C287        C288   1.204       .  T
C288        C289   1.409       .  S
C289        C290   1.204       .  T
C291        C292   1.204       .  T
C292        C293   1.410       .  S
C293        C294   1.204       .  T
C295        C296   1.345       .  D
C295        H297   1.087       .  S
C299        C300   1.206       .  T
C300        C301   1.413       .  S
C301        C302   1.206       .  T
C303        C304   1.208       .  T
C304        C305   1.417       .  S
C305        C306   1.209       .  T
