geometry optimzed in LAMMPS
_audit_creation_date              2020-11-30 
_audit_creation_method            'lammps2cif' 
_symmetry_space_group_name_H-M    'P1' 
_symmetry_Int_Tables_number       1 
_symmetry_cell_setting            triclinic 
loop_ 
_symmetry_equiv_pos_as_xyz 
  x,y,z 
_cell_length_a                    23.21157596833776 
_cell_length_b                    23.194169689178388 
_cell_length_c                    21.834907614848266 
_cell_angle_alpha                 89.99180581568127 
_cell_angle_beta                  90.0072291912188 
_cell_angle_gamma                 120.16769009351592 
loop_ 
_atom_site_label 
_atom_site_type_symbol 
_atom_site_fract_x 
_atom_site_fract_y 
_atom_site_fract_z 
_atom_site_charge 
C1          C  0.79183192  0.52480274  0.99808349     0.04230
C2          C  0.73283965  0.52286154  0.49796725     0.04230
C3          C  0.40844822  0.15052136  0.49782289     0.04230
C4          C  0.40536506  0.20740456  0.49777501     0.04230
C5          C  0.81178494  0.22338573  0.99824391     0.04230
C6          C  0.74857474  0.17142489  0.49815968     0.04230
C7          C  0.52521931  0.76686568  0.49744712     0.04230
C8          C  0.52315880  0.70783197  0.49759410     0.04230
C9          C  0.17122356  0.39853100  0.99809566     0.04230
C10         C  0.22761137  0.39470591  0.49804079     0.04230
C11         C  0.24318148  0.79009042  0.49817093     0.04230
C12         C  0.19188754  0.72652064  0.99817425     0.04230
O13         O  0.96324762  0.38979560  0.36332550    -0.76470
O14         O  0.02774308  0.42901366  0.13112409    -0.76500
O15         O  0.87117689  0.35124238  0.18543714    -0.76500
O16         O  0.12398948  0.48123177  0.31235722    -0.76450
O17         O  0.96315501  0.38966058  0.13319459    -0.76570
O18         O  0.02784289  0.42910826  0.36523521    -0.76490
O19         O  0.12396553  0.48128120  0.18386713    -0.76470
O20         O  0.87122663  0.35133584  0.31114399    -0.76510
C21         C  0.90395466  0.34405808  0.35378512     1.13220
C22         C  0.08819914  0.44275213  0.14086563     1.13100
C23         C  0.90387152  0.34391902  0.14279617     1.13240
C24         C  0.08824791  0.44275410  0.35539432     1.13120
O25         O  0.05569284  0.53801407  0.38223393    -0.76470
O26         O  0.93378313  0.47687216  0.09686981    -0.76550
O27         O  0.89255050  0.48866578  0.31242373    -0.76490
O28         O  0.11068280  0.60088470  0.18996642    -0.76470
O29         O  0.05551668  0.53799847  0.11416477    -0.76520
O30         O  0.93401990  0.47708582  0.39955645    -0.76480
O31         O  0.11080629  0.60087436  0.30640144    -0.76440
O32         O  0.89237606  0.48854097  0.18397600    -0.76510
Co33       Co  0.98130578  0.47587283  0.32938192     1.51530
Co34       Co  0.98118253  0.47575657  0.16702963     1.51690
Co35       Co  0.89633108  0.42491470  0.24824100     1.51570
Co36       Co  0.10849283  0.53417928  0.24815026     1.51470
O37         O  0.00622131  0.46436895  0.24820296    -1.38410
C38         C  0.09940533  0.59323327  0.36246310     1.13140
C39         C  0.89471167  0.49040247  0.12507238     1.13230
C40         C  0.89493200  0.49057778  0.37132153     1.13170
C41         C  0.09919657  0.59325238  0.13391422     1.13150
O42         O  0.42232388  0.37456947  0.13361780    -0.76470
O43         O  0.39728643  0.41428176  0.36411080    -0.76500
O44         O  0.47937022  0.33931174  0.31108743    -0.76500
O45         O  0.35663856  0.46993946  0.18372386    -0.76450
O46         O  0.42218676  0.37443603  0.36191892    -0.76570
O47         O  0.39722226  0.41426799  0.13168888    -0.76490
O48         O  0.35687805  0.47020590  0.31225111    -0.76470
O49         O  0.47950011  0.33941945  0.18443027    -0.76510
C50         C  0.43795204  0.33033195  0.14248420     1.13220
C51         C  0.35215580  0.43024775  0.35468570     1.13100
C52         C  0.43777200  0.33017561  0.35300200     1.13240
C53         C  0.35196444  0.43001102  0.14128896     1.13120
O54         O  0.47868238  0.52265133  0.11380290    -0.76470
O55         O  0.53936033  0.46190664  0.39936926    -0.76550
O56         O  0.59372787  0.47859369  0.18353802    -0.76490
O57         O  0.49237955  0.58712090  0.30565507    -0.76470
O58         O  0.47909533  0.52278088  0.38162699    -0.76520
O59         O  0.53938878  0.46225520  0.09627102    -0.76480
O60         O  0.49199911  0.58705220  0.18969416    -0.76440
O61         O  0.59377390  0.47844311  0.31215681    -0.76510
Co62       Co  0.49101661  0.46073164  0.16668429     1.51530
Co63       Co  0.49103880  0.46053240  0.32892550     1.51690
Co64       Co  0.52720299  0.41339015  0.24780358     1.51570
Co65       Co  0.42603851  0.52186238  0.24783685     1.51470
O66         O  0.45513906  0.45015548  0.24781168    -1.38410
C67         C  0.49246428  0.57848782  0.13348435     1.13140
C68         C  0.59301431  0.47942374  0.37110311     1.13230
C69         C  0.59300342  0.47970422  0.12459638     1.13170
C70         C  0.49307269  0.57864840  0.36185744     1.13150
O71         O  0.55433137  0.03687732  0.09653781    -0.76470
O72         O  0.49276210  0.91510092  0.38147725    -0.76500
O73         O  0.60684484  0.08078634  0.31239925    -0.76500
O74         O  0.50075344  0.86092521  0.18946743    -0.76450
O75         O  0.55447828  0.03667184  0.39940985    -0.76570
O76         O  0.49220899  0.91529973  0.11373438    -0.76490
O77         O  0.50170654  0.86150122  0.30531661    -0.76470
O78         O  0.60675794  0.08040261  0.18368271    -0.76510
C79         C  0.60690398  0.07639205  0.12483069     1.13220
C80         C  0.50336556  0.87104086  0.36150453     1.13100
C81         C  0.60699711  0.07649779  0.37123793     1.13240
C82         C  0.50237065  0.87080962  0.13332934     1.13120
O83         O  0.41190687  0.94233742  0.13074923    -0.76470
O84         O  0.43743263  0.00705762  0.36377076    -0.76550
O85         O  0.48898608  0.09910900  0.18482200    -0.76490
O86         O  0.36829839  0.84651382  0.31202684    -0.76470
O87         O  0.41225774  0.94236079  0.36535961    -0.76520
O88         O  0.43724631  0.00710821  0.13219857    -0.76480
O89         O  0.36769233  0.84660243  0.18436696    -0.76440
O90         O  0.48872440  0.09895127  0.31087189    -0.76510
Co91       Co  0.50546029  0.98985347  0.16671735     1.51530
Co92       Co  0.50567125  0.98993531  0.32909499     1.51690
Co93       Co  0.53836496  0.07525010  0.24794323     1.51570
Co94       Co  0.43657838  0.86278195  0.24782502     1.51470
O95         O  0.46868902  0.96499886  0.24792073    -1.38410
C96         C  0.36500197  0.88191448  0.14108818     1.13140
C97         C  0.44945608  0.06577850  0.35397476     1.13230
C98         C  0.44954364  0.06593088  0.14183013     1.13170
C99         C  0.36552858  0.88181098  0.35526493     1.13150
C100        C  0.31195241  0.85096662  0.39866098    -0.09610
C101        C  0.27608911  0.82333995  0.44183720    -0.11170
C102        C  0.27565857  0.82347293  0.05457050    -0.09610
C103        C  0.31133089  0.85114576  0.09781896    -0.11170
C104        C  0.16424337  0.68870650  0.44287061    -0.09610
C105        C  0.13577997  0.64765484  0.40363238    -0.11170
C106        C  0.16401727  0.68876088  0.05348652    -0.09610
C107        C  0.13549672  0.64770193  0.09272950    -0.11170
C108        C  0.29843616  0.40776364  0.39816276    -0.09610
C109        C  0.26219980  0.39800071  0.44149701    -0.11170
C110        C  0.26204520  0.39772534  0.05456478    -0.09610
C111        C  0.29818605  0.40739296  0.09792504    -0.11170
C112        C  0.11771609  0.41810849  0.39848568    -0.09610
C113        C  0.14224254  0.40557240  0.44160898    -0.11170
C114        C  0.14225445  0.40558379  0.05462417    -0.09610
C115        C  0.11769410  0.41813329  0.09773156    -0.11170
C116        C  0.50921629  0.63228583  0.40305222    -0.09610
C117        C  0.51836698  0.67207527  0.44240756    -0.11170
C118        C  0.50834920  0.63203952  0.09221891    -0.09610
C119        C  0.51767284  0.67190968  0.05286333    -0.11170
C120        C  0.52295958  0.79901634  0.44206760    -0.09610
C121        C  0.51647562  0.83127654  0.40258116    -0.11170
C122        C  0.51526990  0.83111247  0.09192715    -0.09610
C123        C  0.52207504  0.79890914  0.05257834    -0.11170
C124        C  0.84475196  0.25571342  0.05513974    -0.09610
C125        C  0.87174566  0.29013438  0.09944672    -0.11170
C126        C  0.84484975  0.25584170  0.44143646    -0.09610
C127        C  0.87186724  0.29030256  0.39716738    -0.11170
C128        C  0.71064004  0.14366442  0.44272354    -0.09610
C129        C  0.66737090  0.11452632  0.40532065    -0.11170
C130        C  0.66732522  0.11435068  0.09086390    -0.09610
C131        C  0.71062037  0.14352272  0.05352750    -0.11170
C132        C  0.41668081  0.27640768  0.39650505    -0.09610
C133        C  0.40807728  0.24148636  0.44080385    -0.11170
C134        C  0.40822425  0.24162704  0.05468717    -0.09610
C135        C  0.41688832  0.27659893  0.09895177    -0.11170
C136        C  0.41444579  0.12103049  0.44096267    -0.09610
C137        C  0.42571623  0.09636740  0.39699384    -0.11170
C138        C  0.41460425  0.12117474  0.05472446    -0.09610
C139        C  0.42591738  0.09657692  0.09873485    -0.11170
C140        C  0.69617390  0.51591515  0.44259492    -0.09610
C141        C  0.65326563  0.50278207  0.40523299    -0.11170
C142        C  0.65326142  0.50308603  0.09054301    -0.09610
C143        C  0.69616449  0.51611943  0.05323895    -0.11170
C144        C  0.82307220  0.52035352  0.05348989    -0.09610
C145        C  0.85488755  0.51011568  0.09092031    -0.11170
C146        C  0.82322431  0.52044343  0.44279040    -0.09610
C147        C  0.85511016  0.51027717  0.40542183    -0.11200
C148        C  0.79183192  0.52480273  0.49808350     0.04230
C149        C  0.73283965  0.52286154  0.99796725     0.04230
C150        C  0.40844822  0.15052136  0.99782289     0.04230
C151        C  0.40536506  0.20740456  0.99777501     0.04230
C152        C  0.81178494  0.22338573  0.49824390     0.04230
C153        C  0.74857474  0.17142489  0.99815969     0.04230
C154        C  0.52521930  0.76686567  0.99744711     0.04230
C155        C  0.52315879  0.70783197  0.99759409     0.04230
C156        C  0.17122356  0.39853100  0.49809565     0.04230
C157        C  0.22761137  0.39470591  0.99804080     0.04230
C158        C  0.24318148  0.79009042  0.99817092     0.04230
C159        C  0.19188755  0.72652064  0.49817425     0.04230
O160        O  0.96324762  0.38979560  0.86332551    -0.76470
O161        O  0.02774308  0.42901366  0.63112409    -0.76500
O162        O  0.87117689  0.35124237  0.68543714    -0.76500
O163        O  0.12398947  0.48123175  0.81235722    -0.76450
O164        O  0.96315501  0.38966059  0.63319459    -0.76570
O165        O  0.02784289  0.42910826  0.86523521    -0.76490
O166        O  0.12396553  0.48128118  0.68386713    -0.76470
O167        O  0.87122663  0.35133583  0.81114399    -0.76510
C168        C  0.90395466  0.34405808  0.85378512     1.13220
C169        C  0.08819913  0.44275212  0.64086563     1.13100
C170        C  0.90387152  0.34391902  0.64279616     1.13240
C171        C  0.08824790  0.44275409  0.85539432     1.13120
O172        O  0.05569284  0.53801407  0.88223393    -0.76470
O173        O  0.93378313  0.47687217  0.59686981    -0.76550
O174        O  0.89255049  0.48866576  0.81242373    -0.76490
O175        O  0.11068282  0.60088469  0.68996642    -0.76470
O176        O  0.05551668  0.53799847  0.61416477    -0.76520
O177        O  0.93401990  0.47708582  0.89955644    -0.76480
O178        O  0.11080631  0.60087435  0.80640144    -0.76440
O179        O  0.89237605  0.48854095  0.68397600    -0.76510
Co180      Co  0.98130578  0.47587283  0.82938192     1.51530
Co181      Co  0.98118254  0.47575657  0.66702963     1.51690
Co182      Co  0.89633108  0.42491468  0.74824100     1.51570
Co183      Co  0.10849284  0.53417926  0.74815026     1.51470
O184        O  0.00622131  0.46436895  0.74820296    -1.38410
C185        C  0.09940534  0.59323327  0.86246310     1.13140
C186        C  0.89471167  0.49040246  0.62507239     1.13230
C187        C  0.89493199  0.49057777  0.87132153     1.13170
C188        C  0.09919658  0.59325238  0.63391422     1.13150
O189        O  0.42232388  0.37456946  0.63361780    -0.76470
O190        O  0.39728642  0.41428175  0.86411080    -0.76500
O191        O  0.47937021  0.33931173  0.81108743    -0.76500
O192        O  0.35663855  0.46993945  0.68372386    -0.76450
O193        O  0.42218676  0.37443603  0.86191892    -0.76570
O194        O  0.39722226  0.41426799  0.63168887    -0.76490
O195        O  0.35687804  0.47020589  0.81225111    -0.76470
O196        O  0.47950010  0.33941944  0.68443027    -0.76510
C197        C  0.43795203  0.33033195  0.64248420     1.13220
C198        C  0.35215579  0.43024775  0.85468570     1.13100
C199        C  0.43777199  0.33017560  0.85300200     1.13240
C200        C  0.35196443  0.43001102  0.64128896     1.13120
O201        O  0.47868238  0.52265133  0.61380290    -0.76470
O202        O  0.53936032  0.46190663  0.89936926    -0.76550
O203        O  0.59372787  0.47859368  0.68353802    -0.76490
O204        O  0.49237954  0.58712089  0.80565507    -0.76470
O205        O  0.47909533  0.52278088  0.88162699    -0.76520
O206        O  0.53938878  0.46225520  0.59627102    -0.76480
O207        O  0.49199910  0.58705219  0.68969417    -0.76440
O208        O  0.59377389  0.47844310  0.81215681    -0.76510
Co209      Co  0.49101660  0.46073164  0.66668429     1.51530
Co210      Co  0.49103880  0.46053240  0.82892550     1.51690
Co211      Co  0.52720299  0.41339014  0.74780358     1.51570
Co212      Co  0.42603850  0.52186238  0.74783685     1.51470
O213        O  0.45513905  0.45015548  0.74781168    -1.38410
C214        C  0.49246427  0.57848781  0.63348435     1.13140
C215        C  0.59301431  0.47942374  0.87110311     1.13230
C216        C  0.59300342  0.47970421  0.62459638     1.13170
C217        C  0.49307268  0.57864840  0.86185744     1.13150
O218        O  0.55433137  0.03687732  0.59653781    -0.76470
O219        O  0.49276211  0.91510092  0.88147724    -0.76500
O220        O  0.60684484  0.08078635  0.81239925    -0.76500
O221        O  0.50075344  0.86092521  0.68946743    -0.76450
O222        O  0.55447829  0.03667184  0.89940985    -0.76570
O223        O  0.49220899  0.91529974  0.61373438    -0.76490
O224        O  0.50170654  0.86150122  0.80531661    -0.76470
O225        O  0.60675794  0.08040262  0.68368271    -0.76510
C226        C  0.60690399  0.07639205  0.62483069     1.13220
C227        C  0.50336556  0.87104087  0.86150453     1.13100
C228        C  0.60699712  0.07649780  0.87123793     1.13240
C229        C  0.50237065  0.87080962  0.63332934     1.13120
O230        O  0.41190688  0.94233742  0.63074922    -0.76470
O231        O  0.43743264  0.00705762  0.86377076    -0.76550
O232        O  0.48898608  0.09910900  0.68482200    -0.76490
O233        O  0.36829840  0.84651382  0.81202684    -0.76470
O234        O  0.41225775  0.94236079  0.86535961    -0.76520
O235        O  0.43724632  0.00710821  0.63219856    -0.76480
O236        O  0.36769233  0.84660244  0.68436696    -0.76440
O237        O  0.48872440  0.09895127  0.81087189    -0.76510
Co238      Co  0.50546030  0.98985347  0.66671735     1.51530
Co239      Co  0.50567125  0.98993531  0.82909499     1.51690
Co240      Co  0.53836496  0.07525010  0.74794323     1.51570
Co241      Co  0.43657838  0.86278196  0.74782502     1.51470
O242        O  0.46868902  0.96499887  0.74792073    -1.38410
C243        C  0.36500198  0.88191448  0.64108818     1.13140
C244        C  0.44945608  0.06577851  0.85397476     1.13230
C245        C  0.44954364  0.06593089  0.64183013     1.13170
C246        C  0.36552858  0.88181099  0.85526493     1.13150
C247        C  0.31195241  0.85096662  0.89866098    -0.09610
C248        C  0.27608911  0.82333995  0.94183720    -0.11170
C249        C  0.27565858  0.82347293  0.55457049    -0.09610
C250        C  0.31133089  0.85114576  0.59781895    -0.11170
C251        C  0.16424338  0.68870650  0.94287060    -0.09610
C252        C  0.13577998  0.64765484  0.90363238    -0.11170
C253        C  0.16401728  0.68876088  0.55348652    -0.09610
C254        C  0.13549673  0.64770193  0.59272950    -0.11170
C255        C  0.29843615  0.40776363  0.89816277    -0.09610
C256        C  0.26219980  0.39800071  0.94149702    -0.11170
C257        C  0.26204520  0.39772534  0.55456478    -0.09610
C258        C  0.29818604  0.40739296  0.59792503    -0.11170
C259        C  0.11771609  0.41810848  0.89848569    -0.09610
C260        C  0.14224253  0.40557239  0.94160899    -0.11170
C261        C  0.14225445  0.40558379  0.55462416    -0.09610
C262        C  0.11769410  0.41813328  0.59773155    -0.11170
C263        C  0.50921628  0.63228583  0.90305222    -0.09610
C264        C  0.51836697  0.67207526  0.94240755    -0.11170
C265        C  0.50834920  0.63203952  0.59221892    -0.09610
C266        C  0.51767285  0.67190968  0.55286333    -0.11170
C267        C  0.52295957  0.79901634  0.94206760    -0.09610
C268        C  0.51647562  0.83127654  0.90258116    -0.11170
C269        C  0.51526991  0.83111248  0.59192715    -0.09610
C270        C  0.52207505  0.79890914  0.55257834    -0.11170
C271        C  0.84475196  0.25571342  0.55513973    -0.09610
C272        C  0.87174567  0.29013438  0.59944671    -0.11170
C273        C  0.84484976  0.25584170  0.94143647    -0.09610
C274        C  0.87186724  0.29030256  0.89716739    -0.11170
C275        C  0.71064004  0.14366442  0.94272354    -0.09610
C276        C  0.66737091  0.11452632  0.90532065    -0.11170
C277        C  0.66732522  0.11435069  0.59086390    -0.09610
C278        C  0.71062038  0.14352273  0.55352750    -0.11170
C279        C  0.41668081  0.27640767  0.89650505    -0.09610
C280        C  0.40807728  0.24148636  0.94080385    -0.11170
C281        C  0.40822425  0.24162704  0.55468717    -0.09610
C282        C  0.41688831  0.27659893  0.59895177    -0.11170
C283        C  0.41444579  0.12103049  0.94096267    -0.09610
C284        C  0.42571623  0.09636741  0.89699385    -0.11170
C285        C  0.41460425  0.12117474  0.55472446    -0.09610
C286        C  0.42591738  0.09657693  0.59873485    -0.11170
C287        C  0.69617390  0.51591514  0.94259492    -0.09610
C288        C  0.65326562  0.50278206  0.90523299    -0.11170
C289        C  0.65326142  0.50308602  0.59054301    -0.09610
C290        C  0.69616449  0.51611942  0.55323895    -0.11170
C291        C  0.82307219  0.52035351  0.55348989    -0.09610
C292        C  0.85488754  0.51011567  0.59092032    -0.11170
C293        C  0.82322431  0.52044343  0.94279040    -0.09610
C294        C  0.85511016  0.51027716  0.90542183    -0.11200
loop_ 
_geom_bond_atom_site_label_1 
_geom_bond_atom_site_label_2 
_geom_bond_distance 
_geom_bond_site_symmetry_2 
_ccdc_geom_bond_type 
C1          C144   1.440   1_556  S
C1          C293   1.440       .  S
C1          C149   1.347       .  D
C2          C140   1.440       .  S
C2          C290   1.439       .  S
C2          C148   1.347       .  D
C3          C136   1.458       .  S
C3          C285   1.458       .  S
C3            C4   1.357       .  D
C4          C133   1.458       .  S
C4          C281   1.458       .  S
C5          C124   1.454   1_556  S
C5          C273   1.454       .  S
C5          C153   1.352       .  D
C6          C128   1.444       .  S
C6          C278   1.443       .  S
C6          C152   1.352       .  D
C7          C120   1.435       .  S
C7          C270   1.436       .  S
C7            C8   1.346       .  D
C8          C117   1.435       .  S
C8          C266   1.435       .  S
C9          C114   1.454   1_556  S
C9          C260   1.453       .  S
C9          C157   1.356       .  D
C10         C109   1.454       .  S
C10         C257   1.453       .  S
C10         C156   1.356       .  D
C11         C101   1.449       .  S
C11         C249   1.448       .  S
C11         C159   1.352       .  D
C12         C106   1.440   1_556  S
C12         C251   1.440       .  S
C12         C158   1.352       .  D
O13          C21   1.263       .  A
O13         Co33   1.967       .  S
O14          C22   1.291       .  A
O14         Co34   2.034   1_455  S
O15          C23   1.265       .  A
O15         Co35   2.034       .  S
O16          C24   1.274       .  A
O16         Co36   2.012       .  S
O17          C23   1.263       .  A
O17         Co34   1.967       .  S
O18          C24   1.291       .  A
O18         Co33   2.033   1_455  S
O19          C22   1.274       .  A
O19         Co36   2.012       .  S
O20          C21   1.265       .  A
O20         Co35   2.034       .  S
C21         C127   1.440       .  S
C22         C115   1.440       .  S
C23         C125   1.440       .  S
C24         C112   1.440       .  S
O25          C38   1.245       .  A
O25         Co33   1.972   1_455  S
O26          C39   1.260       .  A
O26         Co34   1.894       .  S
O27          C40   1.287       .  A
O27         Co35   2.071       .  S
O28          C41   1.246       .  A
O28         Co36   1.983       .  S
O29          C41   1.245       .  A
O29         Co34   1.972   1_455  S
O30          C40   1.260       .  A
O30         Co33   1.893       .  S
O31          C38   1.246       .  A
O31         Co36   1.983       .  S
O32          C39   1.287       .  A
O32         Co35   2.071       .  S
Co33         O37   1.924   1_655  S
Co34         O37   1.924   1_655  S
Co35         O37   2.236   1_655  S
Co36         O37   2.096       .  S
C38         C105   1.429       .  S
C39         C145   1.430       .  S
C40         C147   1.429       .  S
C41         C107   1.430       .  S
O42          C50   1.263       .  A
O42         Co62   1.963       .  S
O43          C51   1.291       .  A
O43         Co63   2.032       .  S
O44          C52   1.269       .  A
O44         Co64   2.044       .  S
O45          C53   1.276       .  A
O45         Co65   2.014       .  S
O46          C52   1.263       .  A
O46         Co63   1.963       .  S
O47          C53   1.291       .  A
O47         Co62   2.031       .  S
O48          C51   1.276       .  A
O48         Co65   2.014       .  S
O49          C50   1.268       .  A
O49         Co64   2.043       .  S
C50         C135   1.443       .  S
C51         C108   1.440       .  S
C52         C132   1.443       .  S
C53         C111   1.439       .  S
O54          C67   1.244       .  A
O54         Co62   1.972       .  S
O55          C68   1.260       .  A
O55         Co63   1.894       .  S
O56          C69   1.288       .  A
O56         Co64   2.072       .  S
O57          C70   1.244       .  A
O57         Co65   1.978       .  S
O58          C70   1.244       .  A
O58         Co63   1.972       .  S
O59          C69   1.260       .  A
O59         Co62   1.894       .  S
O60          C67   1.244       .  A
O60         Co65   1.979       .  S
O61          C68   1.288       .  A
O61         Co64   2.073       .  S
Co62         O66   1.920       .  S
Co63         O66   1.920       .  S
Co64         O66   2.227       .  S
Co65         O66   2.086       .  S
C67         C118   1.425       .  S
C68         C141   1.429       .  S
C69         C142   1.429       .  S
C70         C116   1.424       .  S
O71          C79   1.260       .  A
O71         Co91   1.892   1_545  S
O72          C80   1.244       .  A
O72         Co92   1.972       .  S
O73          C81   1.289       .  A
O73         Co93   2.078       .  S
O74          C82   1.244       .  A
O74         Co94   1.977       .  S
O75          C81   1.259       .  A
O75         Co92   1.892   1_545  S
O76          C82   1.244       .  A
O76         Co91   1.972       .  S
O77          C80   1.244       .  A
O77         Co94   1.977       .  S
O78          C79   1.289       .  A
O78         Co93   2.077       .  S
C79         C130   1.432       .  S
C80         C121   1.425       .  S
C81         C129   1.433       .  S
C82         C122   1.425       .  S
O83          C96   1.291       .  A
O83         Co91   2.035       .  S
O84          C97   1.264       .  A
O84         Co92   1.968   1_545  S
O85          C98   1.266       .  A
O85         Co93   2.039       .  S
O86          C99   1.272       .  A
O86         Co94   2.005       .  S
O87          C99   1.291       .  A
O87         Co92   2.035       .  S
O88          C98   1.263       .  A
O88         Co91   1.968   1_545  S
O89          C96   1.272       .  A
O89         Co94   2.003       .  S
O90          C97   1.266       .  A
O90         Co93   2.038       .  S
Co91         O95   1.926       .  S
Co92         O95   1.927       .  S
Co93         O95   2.236   1_545  S
Co94         O95   2.098       .  S
C96         C103   1.435       .  S
C97         C137   1.443       .  S
C98         C139   1.443       .  S
C99         C100   1.436       .  S
C100        C101   1.207       .  T
C102        C158   1.448   1_554  S
C102        C103   1.206       .  T
C104        C159   1.440       .  S
C104        C105   1.202       .  T
C106        C107   1.202       .  T
C108        C109   1.209       .  T
C110        C157   1.453   1_554  S
C110        C111   1.209       .  T
C112        C113   1.209       .  T
C113        C156   1.453       .  S
C114        C115   1.209       .  T
C116        C117   1.199       .  T
C118        C119   1.200       .  T
C119        C155   1.435   1_554  S
C120        C121   1.200       .  T
C122        C123   1.200       .  T
C123        C154   1.436   1_554  S
C124        C125   1.210       .  T
C126        C152   1.454       .  S
C126        C127   1.209       .  T
C128        C129   1.204       .  T
C130        C131   1.204       .  T
C131        C153   1.443   1_554  S
C132        C133   1.212       .  T
C134        C151   1.458   1_554  S
C134        C135   1.212       .  T
C136        C137   1.212       .  T
C138        C150   1.458   1_554  S
C138        C139   1.212       .  T
C140        C141   1.202       .  T
C142        C143   1.202       .  T
C143        C149   1.439   1_554  S
C144        C145   1.202       .  T
C146        C148   1.440       .  S
C146        C147   1.202       .  T
C148        C291   1.440       .  S
C149        C287   1.440       .  S
C150        C283   1.458       .  S
C150        C151   1.357       .  D
C151        C280   1.458       .  S
C152        C271   1.454       .  S
C153        C275   1.444       .  S
C154        C267   1.435       .  S
C154        C155   1.346       .  D
C155        C264   1.435       .  S
C156        C261   1.454       .  S
C157        C256   1.454       .  S
C158        C248   1.449       .  S
C159        C253   1.440       .  S
O160        C168   1.263       .  A
O160       Co180   1.967       .  S
O161        C169   1.291       .  A
O161       Co181   2.034   1_455  S
O162        C170   1.265       .  A
O162       Co182   2.034       .  S
O163        C171   1.274       .  A
O163       Co183   2.012       .  S
O164        C170   1.263       .  A
O164       Co181   1.967       .  S
O165        C171   1.291       .  A
O165       Co180   2.033   1_455  S
O166        C169   1.274       .  A
O166       Co183   2.012       .  S
O167        C168   1.265       .  A
O167       Co182   2.034       .  S
C168        C274   1.440       .  S
C169        C262   1.440       .  S
C170        C272   1.440       .  S
C171        C259   1.440       .  S
O172        C185   1.245       .  A
O172       Co180   1.972   1_455  S
O173        C186   1.260       .  A
O173       Co181   1.894       .  S
O174        C187   1.287       .  A
O174       Co182   2.071       .  S
O175        C188   1.246       .  A
O175       Co183   1.983       .  S
O176        C188   1.245       .  A
O176       Co181   1.972   1_455  S
O177        C187   1.260       .  A
O177       Co180   1.893       .  S
O178        C185   1.246       .  A
O178       Co183   1.983       .  S
O179        C186   1.287       .  A
O179       Co182   2.071       .  S
Co180       O184   1.924   1_655  S
Co181       O184   1.924   1_655  S
Co182       O184   2.236   1_655  S
Co183       O184   2.096       .  S
C185        C252   1.429       .  S
C186        C292   1.430       .  S
C187        C294   1.429       .  S
C188        C254   1.430       .  S
O189        C197   1.263       .  A
O189       Co209   1.963       .  S
O190        C198   1.291       .  A
O190       Co210   2.032       .  S
O191        C199   1.269       .  A
O191       Co211   2.044       .  S
O192        C200   1.276       .  A
O192       Co212   2.014       .  S
O193        C199   1.263       .  A
O193       Co210   1.963       .  S
O194        C200   1.291       .  A
O194       Co209   2.031       .  S
O195        C198   1.276       .  A
O195       Co212   2.014       .  S
O196        C197   1.268       .  A
O196       Co211   2.043       .  S
C197        C282   1.443       .  S
C198        C255   1.440       .  S
C199        C279   1.443       .  S
C200        C258   1.439       .  S
O201        C214   1.244       .  A
O201       Co209   1.972       .  S
O202        C215   1.260       .  A
O202       Co210   1.894       .  S
O203        C216   1.288       .  A
O203       Co211   2.072       .  S
O204        C217   1.244       .  A
O204       Co212   1.978       .  S
O205        C217   1.244       .  A
O205       Co210   1.972       .  S
O206        C216   1.260       .  A
O206       Co209   1.894       .  S
O207        C214   1.244       .  A
O207       Co212   1.979       .  S
O208        C215   1.288       .  A
O208       Co211   2.073       .  S
Co209       O213   1.920       .  S
Co210       O213   1.920       .  S
Co211       O213   2.227       .  S
Co212       O213   2.086       .  S
C214        C265   1.425       .  S
C215        C288   1.429       .  S
C216        C289   1.429       .  S
C217        C263   1.424       .  S
O218        C226   1.260       .  A
O218       Co238   1.892   1_545  S
O219        C227   1.244       .  A
O219       Co239   1.972       .  S
O220        C228   1.289       .  A
O220       Co240   2.078       .  S
O221        C229   1.244       .  A
O221       Co241   1.977       .  S
O222        C228   1.259       .  A
O222       Co239   1.892   1_545  S
O223        C229   1.244       .  A
O223       Co238   1.972       .  S
O224        C227   1.244       .  A
O224       Co241   1.977       .  S
O225        C226   1.289       .  A
O225       Co240   2.077       .  S
C226        C277   1.432       .  S
C227        C268   1.425       .  S
C228        C276   1.433       .  S
C229        C269   1.425       .  S
O230        C243   1.291       .  A
O230       Co238   2.035       .  S
O231        C244   1.264       .  A
O231       Co239   1.968   1_545  S
O232        C245   1.266       .  A
O232       Co240   2.039       .  S
O233        C246   1.272       .  A
O233       Co241   2.005       .  S
O234        C246   1.291       .  A
O234       Co239   2.035       .  S
O235        C245   1.263       .  A
O235       Co238   1.968   1_545  S
O236        C243   1.272       .  A
O236       Co241   2.003       .  S
O237        C244   1.266       .  A
O237       Co240   2.038       .  S
Co238       O242   1.926       .  S
Co239       O242   1.927       .  S
Co240       O242   2.236   1_545  S
Co241       O242   2.098       .  S
C243        C250   1.435       .  S
C244        C284   1.443       .  S
C245        C286   1.443       .  S
C246        C247   1.436       .  S
C247        C248   1.207       .  T
C249        C250   1.206       .  T
C251        C252   1.202       .  T
C253        C254   1.202       .  T
C255        C256   1.209       .  T
C257        C258   1.209       .  T
C259        C260   1.209       .  T
C261        C262   1.209       .  T
C263        C264   1.199       .  T
C265        C266   1.200       .  T
C267        C268   1.200       .  T
C269        C270   1.200       .  T
C271        C272   1.210       .  T
C273        C274   1.209       .  T
C275        C276   1.204       .  T
C277        C278   1.204       .  T
C279        C280   1.212       .  T
C281        C282   1.212       .  T
C283        C284   1.212       .  T
C285        C286   1.212       .  T
C287        C288   1.202       .  T
C289        C290   1.202       .  T
C291        C292   1.202       .  T
C293        C294   1.202       .  T
