geometry optimzed in LAMMPS
_audit_creation_date              2020-11-30 
_audit_creation_method            'lammps2cif' 
_symmetry_space_group_name_H-M    'P1' 
_symmetry_Int_Tables_number       1 
_symmetry_cell_setting            triclinic 
loop_ 
_symmetry_equiv_pos_as_xyz 
  x,y,z 
_cell_length_a                    22.25232023 
_cell_length_b                    22.298301624369266 
_cell_length_c                    33.63381503379372 
_cell_angle_alpha                 90.00930082757668 
_cell_angle_beta                  89.99818519211283 
_cell_angle_gamma                 103.43778464482367 
loop_ 
_atom_site_label 
_atom_site_type_symbol 
_atom_site_fract_x 
_atom_site_fract_y 
_atom_site_fract_z 
_atom_site_charge 
C1          C  0.32803891  0.94625626  0.24707084     0.82100
N2          N  0.29779530  0.94738029  0.28203545    -0.76200
C3          C  0.23743356  0.94987060  0.28205057     0.84500
N4          N  0.20737397  0.95126632  0.24703144    -0.76200
C5          C  0.23756502  0.95013959  0.21203279     0.84600
N6          N  0.29792541  0.94764991  0.21208773    -0.77900
C7          C  0.50864488  0.93623131  0.24722994     0.82100
N8          N  0.53861430  0.93467815  0.28231143    -0.76200
C9          C  0.59877477  0.93147634  0.28227052     0.84500
N10         N  0.62876482  0.93005738  0.24744546    -0.76200
C11         C  0.59911256  0.93162904  0.21251076     0.84600
N12         N  0.53894741  0.93482930  0.21225444    -0.77900
C13         C  0.93611682  0.37829379  0.24712199     0.82100
N14         N  0.93724921  0.34810205  0.28213265    -0.76200
C15         C  0.93957294  0.28782196  0.28198361     0.84500
N16         N  0.94073551  0.25797886  0.24704929    -0.76200
C17         C  0.93959557  0.28790918  0.21215274     0.84600
N18         N  0.93727358  0.34818545  0.21207840    -0.77900
C19         C  0.92857855  0.55916463  0.24712132     0.82100
N20         N  0.92740163  0.58931283  0.28210252    -0.76200
C21         C  0.92537380  0.64966729  0.28208685     0.84700
N22         N  0.92451191  0.67977219  0.24711446    -0.76200
C23         C  0.92569850  0.64972916  0.21214435     0.84600
N24         N  0.92772217  0.58937046  0.21213374    -0.77900
O25         O  0.95168074  0.02718897  0.09591188    -0.78300
O26         O  0.86116302  0.93873197  0.40997255    -0.78300
O27         O  0.95280039  0.07789288  0.45476231    -0.78300
O28         O  0.79858605  0.93115917  0.03545508    -0.78200
O29         O  0.95114603  0.02667729  0.39818542    -0.78400
O30         O  0.86175942  0.93907420  0.08452986    -0.78300
O31         O  0.79837534  0.93110849  0.45924588    -0.78300
O32         O  0.95298059  0.07809991  0.03925072    -0.78300
C33         C  0.95181247  0.07667403  0.07761317     1.11400
C34         C  0.80769697  0.93428853  0.42265431     1.11300
C35         C  0.95145205  0.07627558  0.41640487     1.11400
C36         C  0.80818349  0.93450092  0.07201883     1.11300
O37         O  0.94446702  0.89528820  0.07119617    -0.78300
O38         O  0.99593674  0.93640382  0.42449762    -0.78300
O39         O  0.05569752  0.01217652  0.03713780    -0.78300
O40         O  0.86634389  0.83192834  0.45609613    -0.78300
O41         O  0.94400185  0.89494740  0.42308749    -0.78300
O42         O  0.99635542  0.93679627  0.06964845    -0.78300
O43         O  0.86667627  0.83207008  0.03840258    -0.78200
O44         O  0.05547632  0.01190287  0.45681905    -0.78300
Co45       Co  0.93241788  0.97691948  0.04999321     1.51500
Co46       Co  0.93214275  0.97667664  0.44423382     1.51700
Co47       Co  0.99564924  0.03416871  0.49700811     1.51600
Co48       Co  0.83964002  0.88580829  0.49728728     1.51500
O49         O  0.92762708  0.94375466  0.49714327    -1.40200
C50         C  0.90939419  0.84144126  0.06447745     1.11300
C51         C  0.04934858  0.96908641  0.43136604     1.11400
C52         C  0.04971584  0.96948522  0.06265893     1.11400
C53         C  0.90889733  0.84116011  0.42991074     1.11300
C54         C  0.91595137  0.79081560  0.40513417    -0.16600
C55         C  0.91987533  0.75265186  0.38046819     0.07400
C56         C  0.92268804  0.71260415  0.34832442     0.09300
C57         C  0.92416831  0.68204301  0.31890358    -0.17500
C58         C  0.91668629  0.79117399  0.08923551    -0.16600
C59         C  0.92069918  0.75298165  0.11385323     0.07400
C60         C  0.92347012  0.71283119  0.14593874     0.09300
C61         C  0.92479466  0.68217415  0.17532896    -0.17500
C62         C  0.94055044  0.25457433  0.31835155    -0.16600
C63         C  0.94168815  0.21971820  0.34553873     0.07400
C64         C  0.94373172  0.17299633  0.37340078     0.09300
C65         C  0.94649633  0.12984204  0.39428149    -0.17500
C66         C  0.94682082  0.13029978  0.09966824    -0.16600
C67         C  0.94397724  0.17342773  0.12055928     0.07400
C68         C  0.94182730  0.22003931  0.14848841     0.09300
C69         C  0.94061970  0.25477386  0.17573975    -0.17500
C70         C  0.93340945  0.44196263  0.24714802    -0.11400
C71         C  0.93110285  0.49544420  0.24713348    -0.13000
C72         C  0.75756388  0.93393220  0.39594190    -0.16600
C73         C  0.71519688  0.93299634  0.37353902     0.07400
C74         C  0.66790965  0.93177158  0.34552303     0.09300
C75         C  0.63223984  0.93118851  0.31857015    -0.17500
C76         C  0.75823940  0.93420031  0.09889142    -0.16600
C77         C  0.71598849  0.93330195  0.12139299     0.07400
C78         C  0.66872123  0.93208898  0.14943672     0.09300
C79         C  0.63292111  0.93146440  0.17632788    -0.17500
C80         C  0.20528741  0.95129296  0.31904565    -0.16600
C81         C  0.17605623  0.95319916  0.34908583     0.07400
C82         C  0.13782900  0.95671334  0.38222123     0.09300
C83         C  0.10046915  0.96128493  0.40739518    -0.17500
C84         C  0.20554775  0.95178552  0.17501608    -0.16600
C85         C  0.17642231  0.95379462  0.14494635     0.07400
C86         C  0.13828375  0.95733073  0.11177380     0.09300
C87         C  0.10093128  0.96184335  0.08658595    -0.17500
C88         C  0.39174001  0.94309672  0.24708957    -0.11400
C89         C  0.44512922  0.94001998  0.24712736    -0.13000
C90         C  0.32803723  0.94625195  0.74707235     0.82100
N91         N  0.29779472  0.94737754  0.78203708    -0.76200
C92         C  0.23743288  0.94986831  0.78205273     0.84500
N93         N  0.20737272  0.95126314  0.74703364    -0.76200
C94         C  0.23756270  0.95013491  0.71203491     0.84600
N95         N  0.29792306  0.94764457  0.71208936    -0.77900
C96         C  0.50864388  0.93622892  0.74722971     0.82100
N97         N  0.53861318  0.93467398  0.78231096    -0.76200
C98         C  0.59877386  0.93147312  0.78226986     0.84500
N99         N  0.62876437  0.93005688  0.74744457    -0.76200
C100        C  0.59911231  0.93163038  0.71251009     0.84600
N101        N  0.53894688  0.93482969  0.71225395    -0.77900
C102        C  0.93611696  0.37829416  0.74712135     0.82100
N103        N  0.93725048  0.34810243  0.78213193    -0.76200
C104        C  0.93957652  0.28782295  0.78198278     0.84500
N105        N  0.94074025  0.25798037  0.74704840    -0.76200
C106        C  0.93959935  0.28791070  0.71215183     0.84600
N107        N  0.93727501  0.34818623  0.71207767    -0.77900
C108        C  0.92857506  0.55916378  0.74712210     0.82100
N109        N  0.92739702  0.58931075  0.78210382    -0.76200
C110        C  0.92536964  0.64966512  0.78208895     0.84700
N111        N  0.92450942  0.67977175  0.74711703    -0.76200
C112        C  0.92569722  0.64973011  0.71214646     0.84600
N113        N  0.92772043  0.58937138  0.71213504    -0.77900
O114        O  0.95168175  0.02719019  0.59591144    -0.78300
O115        O  0.86116195  0.93873184  0.90997256    -0.78300
O116        O  0.95279750  0.07789310  0.95476257    -0.78300
O117        O  0.79858667  0.93115630  0.53545506    -0.78200
O118        O  0.95114512  0.02667766  0.89818572    -0.78400
O119        O  0.86176054  0.93907586  0.58452991    -0.78300
O120        O  0.79837441  0.93111125  0.95924572    -0.78300
O121        O  0.95298433  0.07810080  0.53925000    -0.78300
C122        C  0.95181535  0.07667538  0.57761242     1.11400
C123        C  0.80769587  0.93428909  0.92265419     1.11300
C124        C  0.95145072  0.07627604  0.91640509     1.11400
C125        C  0.80818452  0.93450088  0.57201878     1.11300
O126        O  0.94446809  0.89528941  0.57119697    -0.78300
O127        O  0.99593544  0.93640379  0.92449831    -0.78300
O128        O  0.05570010  0.01217583  0.53713766    -0.78300
O129        O  0.86634090  0.83192939  0.95609614    -0.78300
O130        O  0.94400031  0.89494723  0.92308791    -0.78300
O131        O  0.99635643  0.93679753  0.56964911    -0.78300
O132        O  0.86667944  0.83206945  0.53840277    -0.78200
O133        O  0.05547380  0.01190416  0.95681938    -0.78300
Co134      Co  0.93241893  0.97692013  0.54999303     1.51500
Co135      Co  0.93214134  0.97667674  0.94423395     1.51700
Co136      Co  0.99564628  0.03416917  0.99700847     1.51600
Co137      Co  0.83963771  0.88580992  0.99728720     1.51500
O138        O  0.92762512  0.94375476  0.99714330    -1.40200
C139        C  0.90939626  0.84144194  0.56447836     1.11300
C140        C  0.04934693  0.96908708  0.93136681     1.11400
C141        C  0.04971729  0.96948536  0.56265950     1.11400
C142        C  0.90889505  0.84116022  0.92991123     1.11300
C143        C  0.91594888  0.79081502  0.90513534    -0.16600
C144        C  0.91987206  0.75265009  0.88046999     0.07400
C145        C  0.92268379  0.71260132  0.84832672     0.09300
C146        C  0.92416376  0.68203987  0.81890603    -0.17500
C147        C  0.91668844  0.79117559  0.58923715    -0.16600
C148        C  0.92070139  0.75298404  0.61385551     0.07400
C149        C  0.92347193  0.71283423  0.64594135     0.09300
C150        C  0.92479527  0.68217675  0.67533160    -0.17500
C151        C  0.94055429  0.25457524  0.81835071    -0.16600
C152        C  0.94169162  0.21971911  0.84553809     0.07400
C153        C  0.94373369  0.17299721  0.87340036     0.09300
C154        C  0.94649666  0.12984271  0.89428148    -0.17500
C155        C  0.94682471  0.13030171  0.59966710    -0.16600
C156        C  0.94398171  0.17342992  0.62055815     0.07400
C157        C  0.94183201  0.22004129  0.64848737     0.09300
C158        C  0.94062415  0.25477571  0.67573884    -0.17500
C159        C  0.93340736  0.44196222  0.74714752    -0.11400
C160        C  0.93109959  0.49544364  0.74713339    -0.13000
C161        C  0.75756279  0.93393063  0.89594146    -0.16600
C162        C  0.71519576  0.93299284  0.87353841     0.07400
C163        C  0.66790854  0.93176690  0.84552225     0.09300
C164        C  0.63223888  0.93118390  0.81856934    -0.17500
C165        C  0.75824033  0.93420173  0.59889118    -0.16600
C166        C  0.71598941  0.93330467  0.62139249     0.07400
C167        C  0.66872176  0.93209258  0.64943600     0.09300
C168        C  0.63292129  0.93146762  0.67632697    -0.17500
C169        C  0.20528772  0.95129229  0.81904791    -0.16600
C170        C  0.17605649  0.95319920  0.84908814     0.07400
C171        C  0.13782864  0.95671374  0.88222309     0.09300
C172        C  0.10046808  0.96128559  0.90739660    -0.17500
C173        C  0.20554520  0.95178127  0.67501830    -0.16600
C174        C  0.17642031  0.95379144  0.64494849     0.07400
C175        C  0.13828325  0.95732922  0.61177545     0.09300
C176        C  0.10093197  0.96184298  0.58658705    -0.17500
C177        C  0.39173849  0.94309251  0.74709045    -0.11400
C178        C  0.44512785  0.94001637  0.74712750    -0.13000
loop_ 
_geom_bond_atom_site_label_1 
_geom_bond_atom_site_label_2 
_geom_bond_distance 
_geom_bond_site_symmetry_2 
_ccdc_geom_bond_type 
C1            N2   1.358       .  A
C1            N6   1.358       .  A
C1           C88   1.436       .  S
N2            C3   1.357       .  A
C3            N4   1.358       .  A
C3           C80   1.439       .  S
N4            C5   1.358       .  A
C5            N6   1.357       .  A
C5           C84   1.439       .  S
C7            N8   1.360       .  A
C7           N12   1.360       .  A
C7           C89   1.435       .  S
N8            C9   1.357       .  A
C9           N10   1.352       .  A
C9           C75   1.431       .  S
N10          C11   1.352       .  A
C11          N12   1.357       .  A
C11          C79   1.431       .  S
C13          N14   1.360       .  A
C13          N18   1.360       .  A
C13          C70   1.435       .  S
N14          C15   1.357       .  A
C15          N16   1.353       .  A
C15          C62   1.433       .  S
N16          C17   1.353       .  A
C17          N18   1.357       .  A
C17          C69   1.433       .  S
C19          N20   1.358       .  A
C19          N24   1.358       .  A
C19          C71   1.435       .  S
N20          C21   1.357       .  A
C21          N22   1.357       .  A
C21          C57   1.437       .  S
N22          C23   1.357       .  A
C23          N24   1.357       .  A
C23          C61   1.437       .  S
O25          C33   1.263       .  A
O25         Co45   1.898   1_545  S
O26          C34   1.246       .  A
O26         Co46   1.979       .  S
O27          C35   1.291       .  A
O27         Co47   2.076       .  S
O28          C36   1.247       .  A
O28        Co137   1.983   1_554  S
O29          C35   1.263       .  A
O29         Co46   1.898   1_545  S
O30          C36   1.246       .  A
O30         Co45   1.979       .  S
O31          C34   1.247       .  A
O31         Co48   1.983       .  S
O32          C33   1.291       .  A
O32        Co136   2.076   1_554  S
C33          C66   1.433       .  S
C34          C72   1.431       .  S
C35          C65   1.433       .  S
C36          C76   1.431       .  S
O37          C50   1.291       .  A
O37         Co45   2.030       .  S
O38          C51   1.263   1_655  A
O38         Co46   1.963       .  S
O39          C52   1.266   1_545  A
O39        Co136   2.038   1_454  S
O40          C53   1.274       .  A
O40         Co48   2.012       .  S
O41          C53   1.291       .  A
O41         Co46   2.030       .  S
O42          C52   1.263   1_655  A
O42         Co45   1.963       .  S
O43          C50   1.274       .  A
O43        Co137   2.011   1_554  S
O44          C51   1.266   1_545  A
O44         Co47   2.038   1_455  S
Co45        O138   1.919   1_554  S
Co46         O49   1.919       .  S
Co47        O121   2.076       .  S
Co47        O128   2.038   1_655  S
Co47         O49   2.222   1_545  S
Co48        O117   1.983       .  S
Co48        O132   2.011       .  S
Co48         O49   2.080       .  S
O49        Co134   1.919       .  S
C50          C58   1.436       .  S
C51          C83   1.437       .  S
C52          C87   1.437       .  S
C53          C54   1.436       .  S
C54          C55   1.206       .  T
C55          C56   1.413       .  S
C56          C57   1.206       .  T
C58          C59   1.206       .  T
C59          C60   1.413       .  S
C60          C61   1.206       .  T
C62          C63   1.204       .  T
C63          C64   1.410       .  S
C64          C65   1.204       .  T
C66          C67   1.204       .  T
C67          C68   1.410       .  S
C68          C69   1.204       .  T
C70          C71   1.206       .  T
C72          C73   1.203       .  T
C73          C74   1.408       .  S
C74          C75   1.203       .  T
C76          C77   1.203       .  T
C77          C78   1.408       .  S
C78          C79   1.203       .  T
C80          C81   1.208       .  T
C81          C82   1.415       .  S
C82          C83   1.207       .  T
C84          C85   1.208       .  T
C85          C86   1.415       .  S
C86          C87   1.207       .  T
C88          C89   1.206       .  T
C90          N91   1.358       .  A
C90          N95   1.358       .  A
C90         C177   1.436       .  S
N91          C92   1.357       .  A
C92          N93   1.358       .  A
C92         C169   1.439       .  S
N93          C94   1.358       .  A
C94          N95   1.357       .  A
C94         C173   1.439       .  S
C96          N97   1.360       .  A
C96         N101   1.360       .  A
C96         C178   1.435       .  S
N97          C98   1.357       .  A
C98          N99   1.352       .  A
C98         C164   1.431       .  S
N99         C100   1.352       .  A
C100        N101   1.357       .  A
C100        C168   1.431       .  S
C102        N103   1.360       .  A
C102        N107   1.360       .  A
C102        C159   1.435       .  S
N103        C104   1.357       .  A
C104        N105   1.353       .  A
C104        C151   1.433       .  S
N105        C106   1.353       .  A
C106        N107   1.357       .  A
C106        C158   1.433       .  S
C108        N109   1.358       .  A
C108        N113   1.358       .  A
C108        C160   1.435       .  S
N109        C110   1.357       .  A
C110        N111   1.357       .  A
C110        C146   1.437       .  S
N111        C112   1.357       .  A
C112        N113   1.357       .  A
C112        C150   1.437       .  S
O114        C122   1.263       .  A
O114       Co134   1.898   1_545  S
O115        C123   1.246       .  A
O115       Co135   1.979       .  S
O116        C124   1.291       .  A
O116       Co136   2.076       .  S
O117        C125   1.247       .  A
O118        C124   1.263       .  A
O118       Co135   1.898   1_545  S
O119        C125   1.246       .  A
O119       Co134   1.979       .  S
O120        C123   1.247       .  A
O120       Co137   1.983       .  S
O121        C122   1.291       .  A
C122        C155   1.433       .  S
C123        C161   1.431       .  S
C124        C154   1.433       .  S
C125        C165   1.431       .  S
O126        C139   1.291       .  A
O126       Co134   2.030       .  S
O127        C140   1.263   1_655  A
O127       Co135   1.963       .  S
O128        C141   1.266   1_545  A
O129        C142   1.274       .  A
O129       Co137   2.012       .  S
O130        C142   1.291       .  A
O130       Co135   2.030       .  S
O131        C141   1.263   1_655  A
O131       Co134   1.963       .  S
O132        C139   1.274       .  A
O133        C140   1.266   1_545  A
O133       Co136   2.038   1_455  S
Co135       O138   1.919       .  S
Co136       O138   2.222   1_545  S
Co137       O138   2.080       .  S
C139        C147   1.436       .  S
C140        C172   1.437       .  S
C141        C176   1.437       .  S
C142        C143   1.436       .  S
C143        C144   1.206       .  T
C144        C145   1.413       .  S
C145        C146   1.206       .  T
C147        C148   1.206       .  T
C148        C149   1.413       .  S
C149        C150   1.206       .  T
C151        C152   1.204       .  T
C152        C153   1.410       .  S
C153        C154   1.204       .  T
C155        C156   1.204       .  T
C156        C157   1.410       .  S
C157        C158   1.204       .  T
C159        C160   1.206       .  T
C161        C162   1.203       .  T
C162        C163   1.408       .  S
C163        C164   1.203       .  T
C165        C166   1.203       .  T
C166        C167   1.408       .  S
C167        C168   1.203       .  T
C169        C170   1.208       .  T
C170        C171   1.415       .  S
C171        C172   1.207       .  T
C173        C174   1.208       .  T
C174        C175   1.415       .  S
C175        C176   1.207       .  T
C177        C178   1.206       .  T
