geometry optimzed in LAMMPS
_audit_creation_date              2020-11-30 
_audit_creation_method            'lammps2cif' 
_symmetry_space_group_name_H-M    'P1' 
_symmetry_Int_Tables_number       1 
_symmetry_cell_setting            triclinic 
loop_ 
_symmetry_equiv_pos_as_xyz 
  x,y,z 
_cell_length_a                    29.67744376 
_cell_length_b                    29.67427701274475 
_cell_length_c                    24.3023641263812 
_cell_angle_alpha                 89.86027340988056 
_cell_angle_beta                  89.93899228487591 
_cell_angle_gamma                 119.97581560065501 
loop_ 
_atom_site_label 
_atom_site_type_symbol 
_atom_site_fract_x 
_atom_site_fract_y 
_atom_site_fract_z 
_atom_site_charge 
C1          C  0.46521519  0.42709807  0.30066993     0.79800
N2          N  0.46386647  0.43032404  0.24508532    -0.78500
C3          C  0.50235046  0.47153766  0.21783911     0.82300
N4          N  0.54272595  0.50978195  0.24640834    -0.78400
C5          C  0.54459255  0.50697699  0.30214027     0.82400
N6          N  0.50554416  0.46553371  0.32886525    -0.80100
C7          C  0.45723787  0.44116891  0.07342390     0.79800
N8          N  0.45839060  0.43867621  0.12927098    -0.78500
C9          C  0.50047622  0.47449123  0.15775654     0.82300
N10         N  0.54136914  0.51297594  0.13034405    -0.78900
C11         C  0.54096257  0.51610362  0.07471568     0.82400
N12         N  0.49879090  0.47998285  0.04639185    -0.80100
C13         C  0.48191893  0.93598090  0.29347982     0.79800
N14         N  0.43996003  0.93066261  0.32151867    -0.78500
C15         C  0.40150173  0.93451447  0.29561870     0.82300
N16         N  0.40557981  0.94440695  0.24056644    -0.78400
C17         C  0.44733597  0.94955446  0.21175278     0.82400
N18         N  0.48530269  0.94521505  0.23839072    -0.80100
C19         C  0.49739730  0.97474709  0.06818676     0.79800
N20         N  0.46198170  0.98427399  0.04353521    -0.78500
C21         C  0.42162626  0.98208942  0.07209178     0.82300
N22         N  0.41674160  0.97022822  0.12662898    -0.78400
C23         C  0.45218043  0.96110333  0.15229818     0.82400
N24         N  0.49236350  0.96320594  0.12288535    -0.80100
C25         C  0.97369823  0.47893316  0.29660702     0.79800
N26         N  0.97373414  0.47662238  0.24086268    -0.78500
C27         C  0.97598611  0.43719297  0.21523218     0.82300
N28         N  0.97783156  0.39959836  0.24559003    -0.78400
C29         C  0.97794185  0.40159915  0.30145139     0.82400
N30         N  0.97604577  0.44147212  0.32649231    -0.80100
C31         C  0.98099151  0.47467118  0.06909027     0.79800
N32         N  0.97988302  0.47561633  0.12493826    -0.78500
C33         C  0.97726531  0.43581591  0.15500866     0.82300
N34         N  0.97625771  0.39496914  0.12909614    -0.78400
C35         C  0.97720678  0.39319876  0.07331361     0.82400
N36         N  0.97932753  0.43312464  0.04339936    -0.80100
O37         O  0.01836258  0.84412752  0.74988213    -0.88600
C38         C  0.12287909  0.10985919  0.60713349     1.11500
O39         O  0.97541952  0.90411018  0.68442732    -1.36400
O40         O  0.13238136  0.07508209  0.74555325    -0.90000
O41         O  0.93184075  0.79784444  0.74127893    -0.90700
O42         O  0.91781643  0.90005465  0.79893047    -0.79500
O43         O  0.07749796  0.95998624  0.73922710    -1.01600
C44         C  0.96741806  0.04758450  0.78620514     1.21500
O45         O  0.91911427  0.95653788  0.68355162    -1.36500
Mn46       Mn  0.97558710  0.95882418  0.62554860     1.82100
O47         O  0.96939397  0.00831542  0.80166969    -0.78600
O48         O  0.08585665  0.11522149  0.75168593    -0.88000
C49         C  0.97435971  0.05255567  0.58475345     1.12600
C50         C  0.12344542  0.10888220  0.76686876     1.07300
O51         O  0.92391741  0.90634010  0.56711768    -0.79500
O52         O  0.02765275  0.01206522  0.68641809    -1.33200
O53         O  0.87389204  0.85618217  0.62906521    -0.98800
C54         C  0.82067939  0.95285194  0.76357977     1.06100
Mn55       Mn  0.03026125  0.08492637  0.68792568     1.48600
O56         O  0.81359757  0.90991768  0.74435565    -0.87900
Mn57       Mn  0.90682355  0.83023462  0.68047774     1.49600
O58         O  0.02200660  0.84438390  0.62718923    -0.91800
C59         C  0.06791842  0.96011206  0.78815124     1.19200
C60         C  0.98030955  0.81058942  0.60421803     1.11300
Mn61       Mn  0.97245924  0.95629953  0.74444669     1.81000
O62         O  0.97310522  0.06018142  0.63395470    -0.97000
Mn63       Mn  0.04560394  0.90111065  0.68777880     1.49300
C64         C  0.97407848  0.80632043  0.76370215     1.07800
Mn65       Mn  0.91334061  0.02501841  0.68416931     1.49900
C66         C  0.82238585  0.95669734  0.60274163     1.10700
O67         O  0.87277642  0.85426369  0.73209755    -1.02800
O68         O  0.08867538  0.11833750  0.62844352    -0.92400
C69         C  0.87828244  0.86013775  0.78166926     1.22000
O70         O  0.96996816  0.05623840  0.73707194    -1.03200
O71         O  0.13060030  0.07335612  0.62296626    -0.90600
O72         O  0.85767736  0.99990202  0.62181667    -0.90200
O73         O  0.93551086  0.80233611  0.61840325    -0.90200
Mn74       Mn  0.10191779  0.01742764  0.68577410     1.47900
O75         O  0.97624614  0.01310945  0.57023888    -0.78700
C76         C  0.88309896  0.86555218  0.58018418     1.15100
O77         O  0.02574136  0.95725003  0.80126350    -0.77400
O78         O  0.03072022  0.96024941  0.57081734    -0.77000
Mn79       Mn  0.84618549  0.88663237  0.68142856     1.51100
O80         O  0.85514397  0.99679358  0.74474887    -0.89400
O81         O  0.07847013  0.95876900  0.63482433    -0.96900
O82         O  0.81463287  0.91293700  0.62038181    -0.91900
C83         C  0.07028649  0.95860847  0.58552761     1.12900
C84         C  0.97604347  0.34805653  0.04593243    -0.03600
C85         C  0.98370536  0.31217586  0.07669885    -0.06200
C86         C  0.98229708  0.26931218  0.05127301    -0.21300
C87         C  0.97228004  0.26080762  0.99483754     0.24500
C88         C  0.96530124  0.29700712  0.96379994    -0.18800
C89         C  0.96719215  0.34016722  0.98910997    -0.08800
C90         C  0.97184905  0.21538381  0.96888887    -0.19100
C91         C  0.94273850  0.19170639  0.92443880    -0.23900
C92         C  0.94679841  0.15151185  0.89224106     0.26500
C93         C  0.93359338  0.14697010  0.83648448    -0.20600
C94         C  0.94013781  0.11288261  0.80279198    -0.10300
C95         C  0.95911661  0.08152921  0.82420096    -0.10800
C96         C  0.97011286  0.08397722  0.88063152    -0.03800
C97         C  0.96429764  0.11902202  0.91449726    -0.18900
H98         H  0.99113573  0.31731068  0.12050003     0.10200
H99         H  0.98856421  0.24243007  0.07584554     0.10300
H100        H  0.95943702  0.29274795  0.91975878     0.10000
H101        H  0.96154873  0.36722771  0.96416256     0.11100
H102        H  0.99679604  0.20209059  0.98642572     0.11200
H103        H  0.91738558  0.20510439  0.90814763     0.13100
H104        H  0.91955279  0.17107499  0.81843483     0.09600
H105        H  0.93045808  0.11127223  0.75959902     0.11700
H106        H  0.98422355  0.05977096  0.89817992     0.08300
H107        H  0.97343668  0.12048130  0.95775239     0.11000
C108        C  0.97124081  0.76869681  0.80594875    -0.03600
C109        C  0.92307225  0.72470432  0.81904127    -0.06200
C110        C  0.92056363  0.68549653  0.85303132    -0.21300
C111        C  0.96588409  0.68959078  0.87562753     0.24500
C112        C  0.01396843  0.73450843  0.86456836    -0.18800
C113        C  0.01659345  0.77365618  0.83004827    -0.08800
C114        C  0.96185085  0.64468120  0.90699760    -0.19100
C115        C  0.99536955  0.64932671  0.94677982    -0.23900
C116        C  0.99071147  0.60374951  0.97724889     0.26500
C117        C  0.00555675  0.60948402  0.03265106    -0.20600
C118        C  0.00196055  0.56744923  0.06243414    -0.10300
C119        C  0.98456504  0.51896301  0.03704924    -0.10800
C120        C  0.97069584  0.51348325  0.98116807    -0.03800
C121        C  0.97342881  0.55536768  0.95161348    -0.18900
H122        H  0.88727431  0.71956422  0.80150543     0.10200
H123        H  0.88307951  0.65133217  0.86094658     0.10300
H124        H  0.04981965  0.73851021  0.88049877     0.10000
H125        H  0.05432762  0.80692269  0.82078919     0.11100
H126        H  0.92878880  0.60652178  0.89831752     0.11200
H127        H  0.02539687  0.68776699  0.95962707     0.13100
H128        H  0.01943210  0.64648034  0.05312456     0.09600
H129        H  0.01338088  0.57315075  0.10529651     0.11700
H130        H  0.95731848  0.47672112  0.96039991     0.08300
H131        H  0.96292426  0.55010347  0.90850892     0.11000
C132        C  0.97284802  0.08876403  0.54391739    -0.03600
C133        C  0.97852736  0.08296747  0.48737534    -0.06200
C134        C  0.97732145  0.11780870  0.44925523    -0.21300
C135        C  0.97089577  0.15923280  0.46700228     0.24500
C136        C  0.96373665  0.16402504  0.52347509    -0.18800
C137        C  0.96501693  0.12939658  0.56144417    -0.08800
C138        C  0.97055394  0.19622143  0.42594160    -0.19100
C139        C  0.98677458  0.24620060  0.43863497    -0.23900
C140        C  0.98476818  0.28481542  0.40113830     0.26500
C141        C  0.99272278  0.33149784  0.42425547    -0.20600
C142        C  0.99048541  0.36914241  0.39186303    -0.10300
C143        C  0.98067789  0.36134649  0.33515399    -0.10800
C144        C  0.97350002  0.31499315  0.31153678    -0.03800
C145        C  0.97542827  0.27699211  0.34416454    -0.18900
H146        H  0.98418393  0.05172402  0.47264784     0.10200
H147        H  0.98216196  0.11287071  0.40591011     0.10300
H148        H  0.95636098  0.19401917  0.53855310     0.10000
H149        H  0.95952423  0.13429665  0.60462875     0.11100
H150        H  0.95723982  0.18171316  0.38481188     0.11200
H151        H  0.00172633  0.25983754  0.47967109     0.13100
H152        H  0.00024845  0.33877433  0.46788362     0.09600
H153        H  0.99662539  0.40451195  0.41143902     0.11700
H154        H  0.96604659  0.30789051  0.26790441     0.08300
H155        H  0.97001338  0.24211097  0.32430135     0.11000
C156        C  0.98465567  0.77872671  0.55997398    -0.03600
C157        C  0.03339843  0.78424785  0.54705347    -0.06200
C158        C  0.03740952  0.75118848  0.50920463    -0.21300
C159        C  0.99306922  0.71240409  0.48272657     0.24500
C160        C  0.94445271  0.70791368  0.49397982    -0.18800
C161        C  0.94032514  0.74082245  0.53225670    -0.08800
C162        C  0.99840730  0.67427593  0.44820402    -0.19100
C163        C  0.96469024  0.64589123  0.40846172    -0.23900
C164        C  0.96840842  0.60398853  0.37954058     0.26500
C165        C  0.95258092  0.59277165  0.32452208    -0.20600
C166        C  0.95484162  0.55252617  0.29710364    -0.10300
C167        C  0.97186360  0.52207293  0.32477828    -0.10800
C168        C  0.98685980  0.53287404  0.38013559    -0.03800
C169        C  0.98528377  0.57342793  0.40718860    -0.18900
H170        H  0.06844722  0.81316669  0.56736437     0.10200
H171        H  0.07522510  0.75524618  0.50140492     0.10300
H172        H  0.90926143  0.67765770  0.47524252     0.10000
H173        H  0.90224516  0.73561690  0.54120549     0.11100
H174        H  0.03177829  0.66940461  0.45604022     0.11200
H175        H  0.93418772  0.65386179  0.39617646     0.13100
H176        H  0.93882183  0.61542565  0.30267189     0.09600
H177        H  0.94261301  0.54481190  0.25454486     0.11700
H178        H  0.99999950  0.51004774  0.40265725     0.08300
H179        H  0.99620059  0.58001097  0.45014899     0.11000
C180        C  0.54006366  0.97611715  0.03461000    -0.03600
C181        C  0.54850822  0.99579696  0.98055608    -0.06200
C182        C  0.58725104  0.99623671  0.94761060    -0.21300
C183        C  0.61836131  0.97646944  0.96725294     0.24500
C184        C  0.61046299  0.95697186  0.02145965    -0.18800
C185        C  0.57177271  0.95700301  0.05488919    -0.08800
C186        C  0.65963006  0.97915019  0.93018081    -0.19100
C187        C  0.67979821  0.94734273  0.93323593    -0.23900
C188        C  0.71842733  0.94986660  0.89219996     0.26500
C189        C  0.71862311  0.90420606  0.87755333    -0.20600
C190        C  0.75218516  0.90507260  0.83634313    -0.10300
C191        C  0.78689273  0.95189555  0.80943324    -0.10800
C192        C  0.78838145  0.99799046  0.82613840    -0.03800
C193        C  0.75461170  0.99700525  0.86692494    -0.18900
H194        H  0.52518702  0.01111503  0.96344222     0.10200
H195        H  0.59268019  0.01183285  0.90623860     0.10300
H196        H  0.63453626  0.94250758  0.03841044     0.10000
H197        H  0.56642608  0.94169241  0.09635272     0.11100
H198        H  0.67135530  0.00661595  0.89621331     0.11200
H199        H  0.66481200  0.91622962  0.96354367     0.13100
H200        H  0.69170696  0.86750491  0.89693565     0.09600
H201        H  0.75054309  0.86896367  0.82518524     0.11700
H202        H  0.81511652  0.03490370  0.80705022     0.08300
H203        H  0.75697133  0.03330306  0.87857409     0.11000
C204        C  0.10544623  0.96360609  0.83039578    -0.03600
C205        C  0.09390836  0.96137374  0.88681587    -0.06200
C206        C  0.12986979  0.96492726  0.92634265    -0.21300
C207        C  0.17828676  0.97163386  0.91025902     0.24500
C208        C  0.18948114  0.97323148  0.85377303    -0.18800
C209        C  0.15356298  0.96940394  0.81438859    -0.08800
C210        C  0.21550572  0.97419534  0.95273237    -0.19100
C211        C  0.26736077  0.00134966  0.94461273    -0.23900
C212        C  0.30660384  0.99957388  0.98122053     0.26500
C213        C  0.35642221  0.01696526  0.95945612    -0.20600
C214        C  0.39391024  0.01246625  0.98962068    -0.10300
C215        C  0.38280650  0.99087068  0.04281409    -0.10800
C216        C  0.33379802  0.97577574  0.06596653    -0.03800
C217        C  0.29591706  0.97992534  0.03543668    -0.18900
H218        H  0.05704582  0.95671173  0.90040698     0.10200
H219        H  0.12006209  0.96286487  0.96956748     0.10300
H220        H  0.22552970  0.97630632  0.83972430     0.10000
H221        H  0.16348056  0.97082857  0.77127341     0.11100
H222        H  0.19941066  0.95244349  0.99048075     0.11200
H223        H  0.28206678  0.02407501  0.90707130     0.13100
H224        H  0.36600755  0.03273892  0.91810084     0.09600
H225        H  0.43145128  0.02519729  0.97070452     0.11700
H226        H  0.32419495  0.95941355  0.10705139     0.08300
H227        H  0.25852366  0.96735285  0.05440954     0.11000
C228        C  0.78737189  0.95770200  0.55975215    -0.03600
C229        C  0.78633954  0.00384777  0.54950940    -0.06200
C230        C  0.74936239  0.00398125  0.51415011    -0.21300
C231        C  0.71325857  0.95841386  0.48716462     0.24500
C232        C  0.71546895  0.91259640  0.49538526    -0.18800
C233        C  0.75207784  0.91221991  0.53154450    -0.08800
C234        C  0.67128853  0.95929011  0.45483765    -0.19100
C235        C  0.64755195  0.92820218  0.41153984    -0.23900
C236        C  0.60488550  0.92998896  0.38154549     0.26500
C237        C  0.60065841  0.92316740  0.32428369    -0.20600
C238        C  0.56102079  0.92548040  0.29535814    -0.10300
C239        C  0.52406193  0.93332640  0.32345896    -0.10800
C240        C  0.52771485  0.93888895  0.38100670    -0.03800
C241        C  0.56774783  0.93746894  0.40967756    -0.18900
H242        H  0.81283598  0.03958838  0.57047938     0.10200
H243        H  0.74834698  0.03970466  0.50860650     0.10300
H244        H  0.68757877  0.87656795  0.47590312     0.10000
H245        H  0.75189404  0.87605022  0.53844370     0.11100
H246        H  0.66068772  0.98818913  0.46621495     0.11200
H247        H  0.66124890  0.90284463  0.39608357     0.13100
H248        H  0.62858864  0.91689666  0.30182865     0.09600
H249        H  0.55907300  0.92071365  0.25110301     0.11700
H250        H  0.49987418  0.94487536  0.40401016     0.08300
H251        H  0.56919033  0.94154238  0.45400365     0.11000
C252        C  0.35662262  0.92919996  0.32813154    -0.03600
C253        C  0.34883701  0.91002624  0.38234026    -0.06200
C254        C  0.30882066  0.90753928  0.41475395    -0.21300
C255        C  0.27572919  0.92464241  0.39431019     0.24500
C256        C  0.28221708  0.94229914  0.33939411    -0.18800
C257        C  0.32223461  0.94442541  0.30662936    -0.08800
C258        C  0.23575184  0.92351347  0.43232766    -0.19100
C259        C  0.21159737  0.95137426  0.42528362    -0.23900
C260        C  0.17537684  0.95251035  0.46700184     0.26500
C261        C  0.13607302  0.96260679  0.44996585    -0.20600
C262        C  0.10171917  0.96439691  0.48829836    -0.10300
C263        C  0.10657366  0.95700460  0.54466429    -0.10800
C264        C  0.14659415  0.94798749  0.56184465    -0.03800
C265        C  0.18062231  0.94581537  0.52355164    -0.18900
H266        H  0.37405038  0.89728644  0.40015435     0.10200
H267        H  0.30447351  0.89321215  0.45659130     0.10300
H268        H  0.25666038  0.95441632  0.32140148     0.10000
H269        H  0.32683472  0.95892176  0.26487331     0.11100
H270        H  0.22750756  0.89995262  0.46922460     0.11200
H271        H  0.21827596  0.97426905  0.38820350     0.13100
H272        H  0.13163691  0.96862994  0.40679053     0.09600
H273        H  0.07151944  0.97182049  0.47383405     0.11700
H274        H  0.15161805  0.94253054  0.60501868     0.08300
H275        H  0.21158865  0.93993629  0.53864996     0.11000
C276        C  0.58615158  0.55877735  0.04579155    -0.03600
C277        C  0.63112037  0.59343301  0.07521188    -0.06200
C278        C  0.67350532  0.63431492  0.04828380    -0.21300
C279        C  0.67169788  0.64185272  0.99160268     0.24500
C280        C  0.62721817  0.60645783  0.96190169    -0.18800
C281        C  0.58488034  0.56555731  0.98877162    -0.08800
C282        C  0.71727350  0.68581959  0.96423697    -0.19100
C283        C  0.71251697  0.70759283  0.91771549    -0.23900
C284        C  0.75697500  0.74724857  0.88536182     0.26500
C285        C  0.74993370  0.74851298  0.82862407    -0.20600
C286        C  0.78976756  0.78485212  0.79553581    -0.10300
C287        C  0.83758475  0.82166781  0.81847776    -0.10800
C288        C  0.84487673  0.82104861  0.87552910    -0.03800
C289        C  0.80484634  0.78380048  0.90886788    -0.18900
H290        H  0.63367590  0.58911259  0.11916489     0.10200
H291        H  0.70756096  0.66051480  0.07190877     0.10300
H292        H  0.62513751  0.60950058  0.91773656     0.10000
H293        H  0.55116962  0.53928089  0.96478003     0.11100
H294        H  0.75531807  0.70003022  0.98262620     0.11200
H295        H  0.67418671  0.69373120  0.90025135     0.13100
H296        H  0.71342814  0.72087627  0.80962868     0.09600
H297        H  0.78273136  0.78442555  0.75176023     0.11700
H298        H  0.88133081  0.84915156  0.89419347     0.08300
H299        H  0.81104732  0.78438285  0.95278161     0.11000
C300        C  0.41141304  0.40164091  0.04234794    -0.03600
C301        C  0.36332226  0.37076320  0.06888580    -0.06200
C302        C  0.32027089  0.33328578  0.03957396    -0.21300
C303        C  0.32464056  0.32497572  0.98350086     0.24500
C304        C  0.37256222  0.35612430  0.95678132    -0.18800
C305        C  0.41535022  0.39417357  0.98582330    -0.08800
C306        C  0.27852122  0.28453835  0.95340027    -0.19100
C307        C  0.28294822  0.25634641  0.91264134    -0.23900
C308        C  0.23829264  0.21591061  0.88084568     0.26500
C309        C  0.24365105  0.17619719  0.85623350    -0.20600
C310        C  0.20513931  0.14018722  0.82151328    -0.10300
C311        C  0.16044812  0.14347233  0.80950630    -0.10800
C312        C  0.15419755  0.18235080  0.83546765    -0.03800
C313        C  0.19270648  0.21819175  0.87095320    -0.18900
H314        H  0.35881598  0.37580930  0.11227534     0.10200
H315        H  0.28365029  0.31014965  0.06093921     0.10300
H316        H  0.37686684  0.35166651  0.91321986     0.10000
H317        H  0.45170755  0.41738460  0.96406235     0.11100
H318        H  0.24020014  0.27601371  0.96706879     0.11200
H319        H  0.32114588  0.26173604  0.90323244     0.13100
H320        H  0.27832625  0.17355181  0.86312656     0.09600
H321        H  0.21141878  0.11076289  0.80258173     0.11700
H322        H  0.12033674  0.18603142  0.82714037     0.08300
H323        H  0.18771025  0.24886952  0.88856970     0.11000
C324        C  0.58846449  0.54837056  0.33390942    -0.03600
C325        C  0.59302942  0.54135587  0.39039195    -0.06200
C326        C  0.63356203  0.57994415  0.42106918    -0.21300
C327        C  0.67048739  0.62692946  0.39652164     0.24500
C328        C  0.66650361  0.63408889  0.33978206    -0.18800
C329        C  0.62591278  0.59507194  0.30879091    -0.08800
C330        C  0.71182284  0.66651769  0.43247938    -0.19100
C331        C  0.74194594  0.71749311  0.42030899    -0.23900
C332        C  0.77814674  0.75556332  0.46138204     0.26500
C333        C  0.82278769  0.80114684  0.44363442    -0.20600
C334        C  0.85716319  0.83730739  0.48192638    -0.10300
C335        C  0.84709911  0.82868978  0.53866201    -0.10800
C336        C  0.80176732  0.78373358  0.55616713    -0.03800
C337        C  0.76764334  0.74785691  0.51815573    -0.18900
H338        H  0.56523367  0.50588722  0.41118699     0.10200
H339        H  0.63566880  0.57319171  0.46458315     0.10300
H340        H  0.69464886  0.66926852  0.31897560     0.10000
H341        H  0.62370249  0.60164661  0.26527852     0.11100
H342        H  0.71613274  0.65277002  0.47247171     0.11200
H343        H  0.73998729  0.73216252  0.38001712     0.13100
H344        H  0.83136133  0.80845634  0.40012667     0.09600
H345        H  0.89161528  0.87179510  0.46719574     0.11700
H346        H  0.79241779  0.77622305  0.59952313     0.08300
H347        H  0.73255510  0.71459918  0.53361075     0.11000
C348        C  0.15631238  0.14538756  0.56307473    -0.03600
C349        C  0.15568229  0.19158124  0.55188080    -0.06200
C350        C  0.19125849  0.22817034  0.51499336    -0.21300
C351        C  0.22764750  0.21912397  0.48780739     0.24500
C352        C  0.22681415  0.17186317  0.49694067    -0.18800
C353        C  0.19142763  0.13534038  0.53422633    -0.08800
C354        C  0.26883709  0.26184810  0.45471605    -0.19100
C355        C  0.29603360  0.25462727  0.41488970    -0.23900
C356        C  0.33972107  0.29897774  0.38615777     0.26500
C357        C  0.34919095  0.29422442  0.33057157    -0.20600
C358        C  0.38996210  0.33590038  0.30262400    -0.10300
C359        C  0.42272019  0.38261889  0.33026127    -0.10800
C360        C  0.41415197  0.38671614  0.38638549    -0.03800
C361        C  0.37295109  0.34539844  0.41403196    -0.18900
H362        H  0.12899925  0.20047875  0.57316179     0.10200
H363        H  0.19120129  0.26430409  0.50869359     0.10300
H364        H  0.25492021  0.16393679  0.47751116     0.10000
H365        H  0.19265755  0.09996491  0.54167051     0.11100
H366        H  0.27689614  0.30108890  0.46346556     0.11200
H367        H  0.28513438  0.21558828  0.40162474     0.13100
H368        H  0.32447036  0.25852704  0.30855899     0.09600
H369        H  0.39600665  0.33144915  0.25947791     0.11700
H370        H  0.43887693  0.42212143  0.40882860     0.08300
H371        H  0.36758654  0.34961111  0.45740121     0.11000
loop_ 
_geom_bond_atom_site_label_1 
_geom_bond_atom_site_label_2 
_geom_bond_distance 
_geom_bond_site_symmetry_2 
_ccdc_geom_bond_type 
C1            N2   1.356       .  A
C1            N6   1.358       .  A
C1          C359   1.476       .  S
N2            C3   1.355       .  A
C3            N4   1.361       .  A
C3            C9   1.465       .  S
N4            C5   1.360       .  A
C5            N6   1.359       .  A
C5          C324   1.486       .  S
C7            N8   1.360       .  A
C7           N12   1.362       .  A
C7          C300   1.486       .  S
N8            C9   1.359       .  A
C9           N10   1.353       .  A
N10          C11   1.355       .  A
C11          N12   1.362       .  A
C11         C276   1.481       .  S
C13          N14   1.357       .  A
C13          N18   1.359       .  A
C13         C239   1.484       .  S
N14          C15   1.358       .  A
C15          N16   1.361       .  A
C15         C252   1.487       .  S
N16          C17   1.363       .  A
C17          N18   1.361       .  A
C17          C23   1.474       .  S
C19          N20   1.357       .  A
C19          N24   1.361       .  A
C19         C180   1.489       .  S
N20          C21   1.357       .  A
C21          N22   1.359       .  A
C21         C215   1.484       .  S
N22          C23   1.362       .  A
C23          N24   1.364       .  A
C25          N26   1.357       .  A
C25          N30   1.357       .  A
C25         C167   1.478       .  S
N26          C27   1.358       .  A
C27          N28   1.360       .  A
C27          C33   1.465       .  S
N28          C29   1.359       .  A
C29          N30   1.358       .  A
C29         C143   1.482       .  S
C31          N32   1.358       .  A
C31          N36   1.362       .  A
C31         C119   1.483       .  S
N32          C33   1.356       .  A
C33          N34   1.354       .  A
N34          C35   1.358       .  A
C35          N36   1.363       .  A
C35          C84   1.482       .  S
O37          C64   1.274   1_455  A
O37         Mn63   2.100       .  S
C38         C348   1.480       .  S
C38          O71   1.273       .  A
C38          O68   1.271       .  A
O39         Mn46   2.160       .  S
O39         Mn57   2.122       .  S
O39         Mn61   2.163       .  S
O39         Mn63   2.130   1_655  S
O40          C50   1.270       .  A
O40         Mn74   2.079       .  S
O41          C64   1.272       .  A
O41         Mn57   2.090       .  S
O42          C69   1.253       .  A
O42         Mn61   2.109       .  S
O43         Mn74   1.967   1_565  S
O43         Mn63   1.968       .  S
O43          C59   1.223       .  S
C44          C95   1.476       .  S
C44          O47   1.253       .  A
C44          O70   1.215       .  S
O45         Mn65   2.123   1_565  S
O45         Mn46   2.164       .  S
O45         Mn79   2.122       .  S
O45         Mn61   2.171       .  S
Mn46         O75   2.088   1_565  S
Mn46         O51   2.103       .  S
Mn46         O78   2.091   1_655  S
Mn46         O52   2.156   1_665  S
O47         Mn61   2.115   1_545  S
O48          C50   1.275       .  A
O48         Mn55   2.112       .  S
C49         C132   1.478       .  S
C49          O75   1.251       .  A
C49          O62   1.221       .  S
C50         C311   1.488       .  S
O51          C76   1.251       .  A
O52         Mn55   2.125       .  S
O52         Mn74   2.129       .  S
O52         Mn61   2.165   1_445  S
O53         Mn57   1.964       .  S
O53         Mn79   1.964       .  S
O53          C76   1.219       .  S
C54         C191   1.489       .  S
C54          O80   1.272       .  A
C54          O56   1.273       .  A
Mn55         O68   2.085       .  S
Mn55         O70   1.955   1_455  S
Mn55         O62   1.975   1_455  S
O56         Mn79   2.103       .  S
Mn57         O73   2.096       .  S
Mn57         O67   1.956       .  S
O58          C60   1.270   1_455  A
O58         Mn63   2.081       .  S
C59         C204   1.481       .  S
C59          O77   1.252       .  A
C60         C156   1.481       .  S
C60          O73   1.273       .  A
Mn61         O77   2.090   1_655  S
O62         Mn65   1.966       .  S
Mn63         O81   1.963       .  S
C64         C108   1.486       .  S
Mn65         O72   2.088   1_545  S
Mn65         O80   2.096   1_545  S
Mn65         O70   1.947       .  S
C66         C228   1.485       .  S
C66          O72   1.272       .  A
C66          O82   1.273       .  A
O67         Mn79   1.953       .  S
O67          C69   1.217       .  S
C69         C287   1.475       .  S
O71         Mn74   2.093       .  S
Mn74         O81   1.962   1_545  S
C76         C335   1.482       .  S
O78          C83   1.252       .  A
Mn79         O82   2.101       .  S
O81          C83   1.222       .  S
C83         C263   1.482       .  S
C84          C85   1.408       .  A
C84          C89   1.404   1_554  A
C85          C86   1.397       .  A
C85          H98   1.083       .  S
C86          C87   1.400   1_554  A
C86          H99   1.083       .  S
C87          C88   1.409       .  A
C87          C90   1.484       .  S
C88          C89   1.398       .  A
C88         H100   1.082       .  S
C89         H101   1.083       .  S
C90          C91   1.344       .  D
C90         H102   1.085       .  S
C91          C92   1.482       .  S
C91         H103   1.086       .  S
C92          C93   1.399       .  A
C92          C97   1.411       .  A
C93          C94   1.390       .  A
C93         H104   1.084       .  S
C94          C95   1.406       .  A
C94         H105   1.083       .  S
C95          C96   1.404       .  A
C96          C97   1.404       .  A
C96         H106   1.083       .  S
C97         H107   1.081       .  S
C108        C109   1.408       .  A
C108        C113   1.407   1_655  A
C109        C110   1.396       .  A
C109        H122   1.083       .  S
C110        C111   1.401       .  A
C110        H123   1.083       .  S
C111        C112   1.408   1_655  A
C111        C114   1.486       .  S
C112        C113   1.401       .  A
C112        H124   1.082       .  S
C113        H125   1.083       .  S
C114        C115   1.345       .  D
C114        H126   1.087       .  S
C115        C116   1.485       .  S
C115        H127   1.086   1_655  S
C116        C117   1.401   1_656  A
C116        C121   1.408       .  A
C117        C118   1.398       .  A
C117        H128   1.083       .  S
C118        C119   1.407   1_455  A
C118        H129   1.083       .  S
C119        C120   1.406   1_554  A
C120        C121   1.401       .  A
C120        H130   1.083       .  S
C121        H131   1.082       .  S
C132        C133   1.406       .  A
C132        C137   1.404       .  A
C133        C134   1.400       .  A
C133        H146   1.083       .  S
C134        C135   1.404       .  A
C134        H147   1.083       .  S
C135        C136   1.407       .  A
C135        C138   1.485       .  S
C136        C137   1.394       .  A
C136        H148   1.082       .  S
C137        H149   1.083       .  S
C138        C139   1.347       .  D
C138        H150   1.083       .  S
C139        C140   1.487       .  S
C139        H151   1.086   1_655  S
C140        C141   1.403       .  A
C140        C145   1.409       .  A
C141        C142   1.394       .  A
C141        H152   1.084   1_655  S
C142        C143   1.405       .  A
C142        H153   1.083       .  S
C143        C144   1.406       .  A
C144        C145   1.401       .  A
C144        H154   1.083       .  S
C145        H155   1.080       .  S
C156        C157   1.407   1_655  A
C156        C161   1.406       .  A
C157        C158   1.394       .  A
C157        H170   1.083       .  S
C158        C159   1.401   1_455  A
C158        H171   1.084       .  S
C159        C160   1.408       .  A
C159        C162   1.481       .  S
C160        C161   1.399       .  A
C160        H172   1.082       .  S
C161        H173   1.083       .  S
C162        C163   1.344       .  D
C162        H174   1.087   1_655  S
C163        C164   1.481       .  S
C163        H175   1.086       .  S
C164        C165   1.402       .  A
C164        C169   1.406       .  A
C165        C166   1.399       .  A
C165        H176   1.083       .  S
C166        C167   1.406       .  A
C166        H177   1.083       .  S
C167        C168   1.404       .  A
C168        C169   1.394       .  A
C168        H178   1.083       .  S
C169        H179   1.082       .  S
C180        C181   1.407   1_554  A
C180        C185   1.408       .  A
C181        C182   1.395       .  A
C181        H194   1.083   1_565  S
C182        C183   1.402       .  A
C182        H195   1.083   1_565  S
C183        C184   1.409   1_556  A
C183        C186   1.489       .  S
C184        C185   1.406       .  A
C184        H196   1.082       .  S
C185        H197   1.083       .  S
C186        C187   1.349       .  D
C186        H198   1.086   1_565  S
C187        C188   1.492       .  S
C187        H199   1.086       .  S
C188        C189   1.405       .  A
C188        C193   1.407       .  A
C189        C190   1.403       .  A
C189        H200   1.083       .  S
C190        C191   1.408       .  A
C190        H201   1.083       .  S
C191        C192   1.407       .  A
C192        C193   1.399       .  A
C192        H202   1.083   1_565  S
C193        H203   1.082   1_565  S
C204        C205   1.406       .  A
C204        C209   1.405       .  A
C205        C206   1.401       .  A
C205        H218   1.083       .  S
C206        C207   1.403       .  A
C206        H219   1.083       .  S
C207        C208   1.407       .  A
C207        C210   1.487       .  S
C208        C209   1.395       .  A
C208        H220   1.082       .  S
C209        H221   1.083       .  S
C210        C211   1.348   1_565  D
C210        H222   1.084       .  S
C211        C212   1.488   1_545  S
C211        H223   1.086       .  S
C212        C213   1.402   1_565  A
C212        C217   1.410   1_556  A
C213        C214   1.394       .  A
C213        H224   1.084       .  S
C214        C215   1.405   1_546  A
C214        H225   1.083       .  S
C215        C216   1.407       .  A
C216        C217   1.403       .  A
C216        H226   1.083       .  S
C217        H227   1.081       .  S
C228        C229   1.407   1_565  A
C228        C233   1.408       .  A
C229        C230   1.396       .  A
C229        H242   1.083       .  S
C230        C231   1.402   1_545  A
C230        H243   1.084       .  S
C231        C232   1.407       .  A
C231        C234   1.484       .  S
C232        C233   1.402       .  A
C232        H244   1.082       .  S
C233        H245   1.083       .  S
C234        C235   1.346       .  D
C234        H246   1.087       .  S
C235        C236   1.485       .  S
C235        H247   1.086       .  S
C236        C237   1.403       .  A
C236        C241   1.405       .  A
C237        C238   1.402       .  A
C237        H248   1.083       .  S
C238        C239   1.406       .  A
C238        H249   1.083       .  S
C239        C240   1.407       .  A
C240        C241   1.397       .  A
C240        H250   1.083       .  S
C241        H251   1.083       .  S
C252        C253   1.406       .  A
C252        C257   1.407       .  A
C253        C254   1.395       .  A
C253        H266   1.083       .  S
C254        C255   1.402       .  A
C254        H267   1.083       .  S
C255        C256   1.410       .  A
C255        C258   1.490       .  S
C256        C257   1.404       .  A
C256        H268   1.081       .  S
C257        H269   1.083       .  S
C258        C259   1.349       .  D
C258        H270   1.085       .  S
C259        C260   1.489       .  S
C259        H271   1.084       .  S
C260        C261   1.404       .  A
C260        C265   1.408       .  A
C261        C262   1.401       .  A
C261        H272   1.083       .  S
C262        C263   1.406       .  A
C262        H273   1.083       .  S
C263        C264   1.405       .  A
C264        C265   1.398       .  A
C264        H274   1.083       .  S
C265        H275   1.082       .  S
C276        C277   1.409       .  A
C276        C281   1.403   1_554  A
C277        C278   1.397       .  A
C277        H290   1.083       .  S
C278        C279   1.400   1_554  A
C278        H291   1.083       .  S
C279        C280   1.410       .  A
C279        C282   1.485       .  S
C280        C281   1.396       .  A
C280        H292   1.081       .  S
C281        H293   1.083       .  S
C282        C283   1.343       .  D
C282        H294   1.086       .  S
C283        C284   1.478       .  S
C283        H295   1.085       .  S
C284        C285   1.398       .  A
C284        C289   1.409       .  A
C285        C286   1.388       .  A
C285        H296   1.084       .  S
C286        C287   1.405       .  A
C286        H297   1.083       .  S
C287        C288   1.405       .  A
C288        C289   1.404       .  A
C288        H298   1.083       .  S
C289        H299   1.082       .  S
C300        C301   1.407       .  A
C300        C305   1.406   1_554  A
C301        C302   1.401       .  A
C301        H314   1.083       .  S
C302        C303   1.403   1_554  A
C302        H315   1.083       .  S
C303        C304   1.407       .  A
C303        C306   1.488       .  S
C304        C305   1.399       .  A
C304        H316   1.083       .  S
C305        H317   1.083       .  S
C306        C307   1.346       .  D
C306        H318   1.086       .  S
C307        C308   1.487       .  S
C307        H319   1.087       .  S
C308        C309   1.401       .  A
C308        C313   1.409       .  A
C309        C310   1.395       .  A
C309        H320   1.084       .  S
C310        C311   1.408       .  A
C310        H321   1.083       .  S
C311        C312   1.407       .  A
C312        C313   1.405       .  A
C312        H322   1.083       .  S
C313        H323   1.082       .  S
C324        C325   1.405       .  A
C324        C329   1.408       .  A
C325        C326   1.394       .  A
C325        H338   1.083       .  S
C326        C327   1.403       .  A
C326        H339   1.084       .  S
C327        C328   1.409       .  A
C327        C330   1.489       .  S
C328        C329   1.404       .  A
C328        H340   1.081       .  S
C329        H341   1.083       .  S
C330        C331   1.349       .  D
C330        H342   1.085       .  S
C331        C332   1.491       .  S
C331        H343   1.084       .  S
C332        C333   1.406       .  A
C332        C337   1.407       .  A
C333        C334   1.404       .  A
C333        H344   1.083       .  S
C334        C335   1.406       .  A
C334        H345   1.083       .  S
C335        C336   1.405       .  A
C336        C337   1.393       .  A
C336        H346   1.083       .  S
C337        H347   1.082       .  S
C348        C349   1.406       .  A
C348        C353   1.406       .  A
C349        C350   1.395       .  A
C349        H362   1.083       .  S
C350        C351   1.401       .  A
C350        H363   1.084       .  S
C351        C352   1.407       .  A
C351        C354   1.481       .  S
C352        C353   1.398       .  A
C352        H364   1.082       .  S
C353        H365   1.083       .  S
C354        C355   1.344       .  D
C354        H366   1.087       .  S
C355        C356   1.480       .  S
C355        H367   1.085       .  S
C356        C357   1.401       .  A
C356        C361   1.406       .  A
C357        C358   1.398       .  A
C357        H368   1.083       .  S
C358        C359   1.406       .  A
C358        H369   1.083       .  S
C359        C360   1.404       .  A
C360        C361   1.395       .  A
C360        H370   1.083       .  S
C361        H371   1.083       .  S
