geometry optimzed in LAMMPS
_audit_creation_date              2020-11-30 
_audit_creation_method            'lammps2cif' 
_symmetry_space_group_name_H-M    'P1' 
_symmetry_Int_Tables_number       1 
_symmetry_cell_setting            triclinic 
loop_ 
_symmetry_equiv_pos_as_xyz 
  x,y,z 
_cell_length_a                    20.58501941 
_cell_length_b                    20.629123694037684 
_cell_length_c                    20.41258610183087 
_cell_angle_alpha                 89.97128440092385 
_cell_angle_beta                  89.84402649091305 
_cell_angle_gamma                 89.88191249252 
loop_ 
_atom_site_label 
_atom_site_type_symbol 
_atom_site_fract_x 
_atom_site_fract_y 
_atom_site_fract_z 
_atom_site_charge 
N1          N  0.90094045  0.73177569  0.10885969    -0.25400
N2          N  0.84560464  0.73418573  0.07657494    -0.33300
C3          C  0.85177879  0.69935662  0.02142107     0.02900
C4          C  0.91581472  0.67732374  0.01508566     0.09000
C5          C  0.94475217  0.69821038  0.07305287    -0.04100
H6          H  0.81377841  0.69730758  0.98632278     0.09600
H7          H  0.99540937  0.69426907  0.08566108     0.10800
Cu8        Cu  0.77678245  0.80824786  0.08847369     0.44200
Cu9        Cu  0.91759270  0.78675338  0.19219558     0.42000
Cu10       Cu  0.88237279  0.94077383  0.13645636     0.43900
N11         N  0.75201914  0.90609412  0.07630560    -0.32800
N12         N  0.79608495  0.95149045  0.08617208    -0.27000
C13         C  0.77157555  0.00905276  0.06952041    -0.03100
C14         C  0.70706828  0.00172900  0.05131878     0.09100
C15         C  0.69690429  0.93488627  0.05445940     0.02900
H16         H  0.79873608  0.05367235  0.07305302     0.10500
H17         H  0.65270254  0.90933210  0.04199964     0.09600
N18         N  0.93885390  0.92591462  0.21846610    -0.34200
N19         N  0.94236399  0.86813006  0.24560647    -0.26400
C20         C  0.97815905  0.87195952  0.30023491    -0.01700
C21         C  0.00322735  0.93436522  0.30513980     0.06900
C22         C  0.97517363  0.96770639  0.25307955     0.05000
H23         H  0.98917467  0.83088379  0.33114094     0.10100
H24         H  0.98362289  0.01759919  0.23895229     0.09000
C25         C  0.15969069  0.45959711  0.93000915    -0.00600
C26         C  0.95821615  0.45623263  0.93032086    -0.00600
C27         C  0.94985221  0.65373471  0.95199111    -0.00600
C28         C  0.15287346  0.65699026  0.95188498    -0.00600
N29         N  0.20749239  0.72932898  0.10865343    -0.25400
N30         N  0.26302565  0.72616502  0.07593382    -0.33300
C31         C  0.25338000  0.69082073  0.02153546     0.02900
C32         C  0.18715353  0.67899161  0.01458852     0.09000
C33         C  0.16024645  0.70186218  0.07253664    -0.04100
H34         H  0.29001735  0.68382709  0.98404575     0.09600
H35         H  0.10951650  0.70264282  0.08563596     0.10800
Cu36       Cu  0.33692105  0.79651765  0.08320420     0.44200
Cu37       Cu  0.19428912  0.77706221  0.19735249     0.42000
Cu38       Cu  0.29106683  0.91240550  0.20705964     0.43900
N39         N  0.38068345  0.88864651  0.09087754    -0.32800
N40         N  0.36231856  0.92807473  0.13824025    -0.27000
C41         C  0.39013411  0.98574029  0.13036291    -0.03100
C42         C  0.42927178  0.98518441  0.07482254     0.09100
C43         C  0.42189126  0.92173596  0.05103064     0.02900
H44         H  0.37800447  0.02550201  0.16227206     0.10500
H45         H  0.44199167  0.90262362  0.00601797     0.09600
N46         N  0.21218811  0.90121833  0.26793835    -0.34200
N47         N  0.17975259  0.84644560  0.26934836    -0.26400
C48         C  0.12645808  0.85430416  0.30640727    -0.01700
C49         C  0.12181395  0.91917517  0.32565305     0.06900
C50         C  0.17893024  0.94653900  0.30144891     0.05000
H51         H  0.09068648  0.81687562  0.31148374     0.10100
H52         H  0.19197468  0.99722878  0.30192037     0.09000
N53         N  0.75763296  0.18987075  0.78615256    -0.25400
N54         N  0.73783566  0.17456947  0.72702400    -0.33300
C55         C  0.69037623  0.13016590  0.73233570     0.02900
C56         C  0.68418974  0.11241166  0.79813660     0.09000
C57         C  0.72688438  0.15327337  0.83055255    -0.04100
H58         H  0.66488879  0.11027402  0.69093383     0.09600
H59         H  0.73750483  0.15437513  0.88234615     0.10800
Cu60       Cu  0.79620630  0.19973124  0.64778520     0.44200
Cu61       Cu  0.82507589  0.26031308  0.80120166     0.42000
Cu62       Cu  0.90557307  0.34519814  0.67692526     0.43900
N63         N  0.88612278  0.21644396  0.60317944    -0.32800
N64         N  0.91910525  0.27123513  0.60802515    -0.27000
C65         C  0.97663651  0.26367841  0.57840613    -0.03100
C66         C  0.98363603  0.19989598  0.55724927     0.09100
C67         C  0.92408923  0.17186533  0.57306200     0.02900
H68         H  0.01243193  0.30140355  0.57881382     0.10500
H69         H  0.91081816  0.12142575  0.56679384     0.09600
N70         N  0.90594735  0.37898523  0.77340281    -0.34200
N71         N  0.87625950  0.34311963  0.81750256    -0.26400
C72         C  0.88799562  0.36578271  0.87705410    -0.01700
C73         C  0.92724482  0.42027433  0.87262792     0.06900
C74         C  0.93785398  0.42711500  0.80513248     0.05000
H75         H  0.87170929  0.34021006  0.92000232     0.10100
H76         H  0.96976703  0.46173493  0.78166253     0.09000
C77         C  0.46291061  0.04391002  0.04276055    -0.00600
C78         C  0.44970249  0.05646247  0.84005247    -0.00600
C79         C  0.64680828  0.05542451  0.82750119    -0.00600
C80         C  0.66101992  0.05699966  0.03229898    -0.00600
N81         N  0.91835762  0.18442659  0.23558478    -0.25400
N82         N  0.96450967  0.20240206  0.19449695    -0.33300
C83         C  0.02252708  0.19459024  0.22237805     0.02900
C84         C  0.01444862  0.17300540  0.28631408     0.09000
C85         C  0.94706385  0.16511086  0.29222699    -0.04100
H86         H  0.06753312  0.20519307  0.19730345     0.09600
H87         H  0.92119907  0.14693858  0.33457811     0.10800
Cu88       Cu  0.95033398  0.25226133  0.10857058     0.44200
Cu89       Cu  0.82065404  0.18742538  0.20378038     0.42000
Cu90       Cu  0.79322485  0.29693285  0.06511438     0.43900
N91         N  0.93108164  0.33660228  0.05838074    -0.32800
N92         N  0.87169982  0.35932513  0.05105116    -0.27000
C93         C  0.87444591  0.41429971  0.01544678    -0.03100
C94         C  0.93845873  0.42351666  0.99452327     0.09100
C95         C  0.97293177  0.37400178  0.02514837     0.02900
H96         H  0.83214637  0.43733747  0.99436017     0.10500
H97         H  0.02336347  0.36128556  0.01742742     0.09600
N98         N  0.74017843  0.21181530  0.08049581    -0.34200
N99         N  0.74399952  0.17805607  0.13551107    -0.26400
C100        C  0.70752570  0.12440239  0.12913663    -0.01700
C101        C  0.68442012  0.12012890  0.06501234     0.06900
C102        C  0.70492332  0.17790211  0.03639816     0.05000
H103        H  0.70729392  0.08548158  0.16467120     0.10100
H104        H  0.69931936  0.19180329  0.98553055     0.09000
N105        N  0.36400042  0.94146147  0.73504780    -0.25400
N106        N  0.35838931  0.91253567  0.79223293    -0.33300
C107        C  0.39468822  0.94323134  0.83683233     0.02900
C108        C  0.42457979  0.99548666  0.80661311     0.09000
C109        C  0.40650424  0.99060539  0.74089083    -0.04100
H110        H  0.39195247  0.93357392  0.88881011     0.09600
H111        H  0.41369395  0.02738984  0.70385362     0.10800
Cu112      Cu  0.28757467  0.84578459  0.81006725     0.44200
Cu113      Cu  0.29130630  0.92759659  0.66586682     0.42000
Cu114      Cu  0.17639663  0.78389397  0.69640066     0.43900
N115        N  0.22302668  0.77447754  0.83311822    -0.32800
N116        N  0.18437020  0.74408065  0.79218882    -0.27000
C117        C  0.15355679  0.69651831  0.82653382    -0.03100
C118        C  0.17403330  0.69834441  0.89234181     0.09100
C119        C  0.21657541  0.75044683  0.89325485     0.02900
H120        H  0.11727682  0.66447104  0.80621001     0.10500
H121        H  0.24060608  0.77226493  0.93429823     0.09600
N122        N  0.16741193  0.85779636  0.62393376    -0.34200
N123        N  0.20193023  0.91200206  0.62058287    -0.26400
C124        C  0.16759150  0.95756526  0.58782957    -0.01700
C125        C  0.10908978  0.93094869  0.56806057     0.06900
C126        C  0.11288154  0.86655580  0.58892720     0.05000
H127        H  0.18231000  0.00762620  0.58283735     0.10100
H128        H  0.07354848  0.83184251  0.58780992     0.09000
C129        C  0.06974465  0.15680297  0.33407896    -0.00600
C130        C  0.06025259  0.95553775  0.34739599    -0.00600
C131        C  0.04648271  0.96446203  0.54509164    -0.00600
C132        C  0.04638309  0.16727757  0.53305923    -0.00600
N133        N  0.26835106  0.38855952  0.80651041    -0.25400
N134        N  0.21390818  0.39082841  0.77210017    -0.33300
C135        C  0.16813320  0.42218662  0.80727939     0.02900
C136        C  0.19486867  0.44146759  0.86646743     0.09000
C137        C  0.25984685  0.42335023  0.86153521    -0.04100
H138        H  0.11734322  0.42436290  0.79375227     0.09600
H139        H  0.29461857  0.42395856  0.90127372     0.10800
Cu140      Cu  0.19586671  0.33825725  0.68689618     0.44200
Cu141      Cu  0.33424128  0.31054347  0.80285895     0.42000
Cu142      Cu  0.23399429  0.18433570  0.73524656     0.43900
N143        N  0.16662280  0.25937633  0.63107456    -0.32800
N144        N  0.17410731  0.20093897  0.65573587    -0.27000
C145        C  0.13772020  0.15889180  0.62178410    -0.03100
C146        C  0.10488393  0.19217915  0.57235249     0.09100
C147        C  0.12739547  0.25574653  0.57844969     0.02900
H148        H  0.13235118  0.10847441  0.63514411     0.10500
H149        H  0.11277117  0.29732763  0.54971944     0.09600
N150        N  0.31734802  0.16774395  0.78913377    -0.34200
N151        N  0.35909902  0.21172742  0.80963961    -0.26400
C152        C  0.41258333  0.18050660  0.83266205    -0.01700
C153        C  0.40417002  0.11365738  0.82457647     0.06900
C154        C  0.34192553  0.10867490  0.79885004     0.05000
H155        H  0.45485900  0.20438463  0.85250294     0.10100
H156        H  0.31579416  0.06506371  0.78638987     0.09000
N157        N  0.22565567  0.20988410  0.25938666    -0.25400
N158        N  0.19115474  0.26412767  0.25678268    -0.33300
C159        C  0.13615951  0.25535758  0.29145251     0.02900
C160        C  0.13228228  0.19087456  0.31168757     0.09000
C161        C  0.19112243  0.16423930  0.29173543    -0.04100
H162        H  0.09659639  0.28991274  0.29225162     0.09600
H163        H  0.20550692  0.11392941  0.29543496     0.10800
Cu164      Cu  0.20115379  0.33567882  0.18305315     0.44200
Cu165      Cu  0.31313711  0.19495434  0.20934628     0.42000
Cu166      Cu  0.28037795  0.24825501  0.05363052     0.43900
N167        N  0.19896959  0.36782225  0.08461165    -0.32800
N168        N  0.22289260  0.32944044  0.03877094    -0.27000
C169        C  0.21111236  0.35483783  0.97983575    -0.03100
C170        C  0.18130926  0.41499898  0.98671618     0.09100
C171        C  0.17252063  0.42057438  0.05469553     0.02900
H172        H  0.22374172  0.33014200  0.93498067     0.10500
H173        H  0.14819290  0.45978325  0.08010189     0.09600
N174        N  0.35697434  0.18565848  0.07251296    -0.34200
N175        N  0.37639222  0.17340187  0.13263273    -0.26400
C176        C  0.42519792  0.12974022  0.13046056    -0.01700
C177        C  0.43233602  0.10807851  0.06610050     0.06900
C178        C  0.38973590  0.14745762  0.03068162     0.05000
H179        H  0.44666839  0.10790525  0.17345063     0.10100
H180        H  0.37829146  0.14410331  0.97918456     0.09000
N181        N  0.94260307  0.90881767  0.68112339    -0.25400
N182        N  0.89671090  0.91725307  0.63683965    -0.33300
C183        C  0.92460581  0.93929329  0.58085729     0.02900
C184        C  0.99140899  0.94414549  0.59092035     0.09000
C185        C  0.99956213  0.92681907  0.65609426    -0.04100
H186        H  0.89849703  0.95111821  0.53654413     0.09600
H187        H  0.04452388  0.92461346  0.68323252     0.10800
Cu188      Cu  0.79948353  0.90505727  0.66350546     0.44200
Cu189      Cu  0.93373637  0.85922602  0.76844490     0.42000
Cu190      Cu  0.77846024  0.81239044  0.81263252     0.43900
N191        N  0.72698917  0.92336377  0.73295779    -0.32800
N192        N  0.72405042  0.89535192  0.79099765    -0.27000
C193        C  0.69092376  0.93471389  0.83228992    -0.03100
C194        C  0.67123386  0.99048729  0.79868175     0.09100
C195        C  0.69377270  0.97927498  0.73508019     0.02900
H196        H  0.68627055  0.92598435  0.88441897     0.10500
H197        H  0.69313677  0.01149251  0.69421425     0.09600
N198        N  0.85934372  0.75544209  0.83465126    -0.34200
N199        N  0.91810319  0.77944392  0.82722961    -0.26400
C200        C  0.96054071  0.74389594  0.86210326    -0.01700
C201        C  0.92681800  0.69439685  0.89368232     0.06900
C202        C  0.86319132  0.70147829  0.87137440     0.05000
H203        H  0.01135845  0.75597338  0.86748456     0.10100
H204        H  0.82169336  0.67266143  0.88496890     0.09000
C205        C  0.04831546  0.03654060  0.54527700    -0.11400
C206        C  0.04418109  0.09525589  0.54054708    -0.12900
C207        C  0.04521068  0.94315898  0.41711671    -0.11400
C208        C  0.03791688  0.94543287  0.47601595    -0.12900
C209        C  0.07520833  0.08518728  0.33596058    -0.11400
C210        C  0.07033894  0.02674319  0.34080492    -0.12900
C211        C  0.05677291  0.17706325  0.40250432    -0.11400
C212        C  0.05309597  0.17984144  0.46187396    -0.12900
C213        C  0.66002768  0.05979554  0.95953139    -0.11400
C214        C  0.65487779  0.05642657  0.90025025    -0.12900
C215        C  0.51767910  0.06632923  0.81882353    -0.11400
C216        C  0.57648241  0.06371052  0.81529108    -0.12900
C217        C  0.45601476  0.04104344  0.97065925    -0.11400
C218        C  0.45191595  0.04713041  0.91183845    -0.12900
C219        C  0.53381501  0.04287694  0.05573707    -0.11400
C220        C  0.59277931  0.04548073  0.05278416    -0.12900
C221        C  0.08095233  0.66085579  0.95811784    -0.11400
C222        C  0.02189247  0.65933490  0.95808169    -0.14100
C223        C  0.93959647  0.52566309  0.93280572    -0.11400
C224        C  0.93682551  0.58404673  0.94031583    -0.12900
C225        C  0.02972221  0.45385601  0.92336111    -0.11400
C226        C  0.08849413  0.45388226  0.92348430    -0.12900
C227        C  0.16912906  0.58773629  0.94348929    -0.11400
C228        C  0.17216187  0.52907081  0.94144030    -0.12900
loop_ 
_geom_bond_atom_site_label_1 
_geom_bond_atom_site_label_2 
_geom_bond_distance 
_geom_bond_site_symmetry_2 
_ccdc_geom_bond_type 
N1            N2   1.318       .  A
N1            C5   1.350       .  A
N1           Cu9   2.075       .  S
N2            C3   1.341       .  A
N2           Cu8   2.095       .  S
C3            C4   1.399       .  A
C3            H6   1.063   1_554  S
C4            C5   1.395       .  A
C4           C27   1.543   1_554  S
C5            H7   1.078       .  S
Cu8          N11   2.096       .  S
Cu9          N19   2.068       .  S
Cu10         N12   2.065       .  S
Cu10         N18   2.063       .  S
N11          N12   1.321       .  A
N11          C15   1.356       .  A
N12          C13   1.333   1_565  A
C13          C14   1.388       .  A
C13          H16   1.080       .  S
C14          C15   1.397   1_545  A
C14          C80   1.532       .  S
C15          H17   1.083       .  S
N18          N19   1.316       .  A
N18          C22   1.344       .  A
N19          C20   1.341       .  A
C20          C21   1.392   1_655  A
C20          H23   1.080       .  S
C21          C22   1.392   1_455  A
C21         C130   1.523       .  S
C22          H24   1.083   1_565  S
C25         C136   1.530       .  S
C25         C170   1.544       .  S
C25         C226   1.477       .  S
C25         C228   1.475       .  S
C26          C73   1.533       .  S
C26          C94   1.528       .  S
C26         C223   1.483       .  S
C26         C225   1.479   1_655  S
C27         C201   1.532       .  S
C27         C222   1.493   1_655  S
C27         C224   1.482       .  S
C28          C32   1.533   1_556  S
C28         C118   1.547       .  S
C28         C221   1.488       .  S
C28         C227   1.477       .  S
N29          N30   1.324       .  A
N29          C33   1.348       .  A
N29         Cu37   2.078       .  S
N30          C31   1.344       .  A
N30         Cu36   2.110       .  S
C31          C32   1.393       .  A
C31          H34   1.082   1_554  S
C32          C33   1.387       .  A
C33          H35   1.077       .  S
Cu36         N39   2.111       .  S
Cu37         N47   2.073       .  S
Cu38         N40   2.054       .  S
Cu38         N46   2.055       .  S
N39          N40   1.318       .  A
N39          C43   1.358       .  A
N40          C41   1.331       .  A
C41          C42   1.389       .  A
C41          H44   1.076   1_565  S
C42          C43   1.405       .  A
C42          C77   1.541   1_565  S
C43          H45   1.081       .  S
N46          N47   1.314       .  A
N46          C50   1.344       .  A
N47          C48   1.341       .  A
C48          C49   1.398       .  A
C48          H51   1.073       .  S
C49          C50   1.394       .  A
C49         C130   1.536       .  S
C50          H52   1.080       .  S
N53          N54   1.314       .  A
N53          C57   1.338       .  A
N53         Cu61   2.036       .  S
N54          C55   1.345       .  A
N54         Cu60   2.079       .  S
C55          C56   1.398       .  A
C55          H58   1.078       .  S
C56          C57   1.388       .  A
C56          C79   1.528       .  S
C57          H59   1.080       .  S
Cu60         N63   2.090       .  S
Cu61         N71   2.037       .  S
Cu62         N64   2.093       .  S
Cu62         N70   2.089       .  S
N63          N64   1.324       .  A
N63          C67   1.353       .  A
N64          C65   1.337       .  A
C65          C66   1.392       .  A
C65          H68   1.073   1_655  S
C66          C67   1.393       .  A
C66         C132   1.536   1_655  S
C67          H69   1.084       .  S
N70          N71   1.315       .  A
N70          C74   1.357       .  A
N71          C72   1.326       .  A
C72          C73   1.388       .  A
C72          H75   1.076       .  S
C73          C74   1.401       .  A
C74          H76   1.082       .  S
C77         C177   1.540       .  S
C77         C217   1.480   1_554  S
C77         C219   1.484       .  S
C78         C108   1.524   1_545  S
C78         C153   1.539       .  S
C78         C215   1.478       .  S
C78         C218   1.479       .  S
C79         C194   1.546   1_545  S
C79         C214   1.495       .  S
C79         C216   1.479       .  S
C80         C101   1.542       .  S
C80         C213   1.487   1_554  S
C80         C220   1.484       .  S
N81          N82   1.319       .  A
N81          C85   1.359       .  A
N81         Cu89   2.116       .  S
N82          C83   1.334   1_655  A
N82         Cu88   2.054       .  S
C83          C84   1.388       .  A
C83          H86   1.080       .  S
C84          C85   1.402   1_455  A
C84         C129   1.537       .  S
C85          H87   1.081       .  S
Cu88         N91   2.057       .  S
Cu89         N99   2.117       .  S
Cu90         N92   2.087       .  S
Cu90         N98   2.093       .  S
N91          N92   1.317       .  A
N91          C95   1.340       .  A
N92          C93   1.348       .  A
C93          C94   1.397   1_554  A
C93          H96   1.081   1_554  S
C94          C95   1.392   1_556  A
C95          H97   1.081   1_655  S
N98          N99   1.324       .  A
N98         C102   1.354       .  A
N99         C100   1.345       .  A
C100        C101   1.397       .  A
C100        H103   1.082       .  S
C101        C102   1.393       .  A
C102        H104   1.083   1_554  S
N105        N106   1.316       .  A
N105        C109   1.346       .  A
N105       Cu113   2.081       .  S
N106        C107   1.340       .  A
N106       Cu112   2.039       .  S
C107        C108   1.386       .  A
C107        H110   1.081       .  S
C108        C109   1.397       .  A
C109        H111   1.081   1_565  S
Cu112       N115   2.038       .  S
Cu113       N123   2.087       .  S
Cu114       N116   2.127       .  S
Cu114       N122   2.132       .  S
N115        N116   1.316       .  A
N115        C119   1.330       .  A
N116        C117   1.362       .  A
C117        C118   1.410       .  A
C117        H120   1.082       .  S
C118        C119   1.388       .  A
C119        H121   1.074       .  S
N122        N123   1.328       .  A
N122        C126   1.344       .  A
N123        C124   1.353       .  A
C124        C125   1.386       .  A
C124        H127   1.082   1_565  S
C125        C126   1.397       .  A
C125        C131   1.536       .  S
C126        H128   1.082       .  S
C129        C160   1.536       .  S
C129        C209   1.482       .  S
C129        C211   1.482       .  S
C130        C207   1.478       .  S
C130        C210   1.490   1_565  S
C131        C184   1.527   1_455  S
C131        C205   1.487   1_565  S
C131        C208   1.475       .  S
C132        C146   1.538       .  S
C132        C206   1.494       .  S
C132        C212   1.482       .  S
N133        N134   1.325       .  A
N133        C137   1.344       .  A
N133       Cu141   2.104       .  S
N134        C135   1.348       .  A
N134       Cu140   2.085       .  S
C135        C136   1.388       .  A
C135        H138   1.083       .  S
C136        C137   1.391       .  A
C137        H139   1.083       .  S
Cu140       N143   2.078       .  S
Cu141       N151   2.105       .  S
Cu142       N144   2.069       .  S
Cu142       N150   2.068       .  S
N143        N144   1.315       .  A
N143        C147   1.348       .  A
N144        C145   1.342       .  A
C145        C146   1.396       .  A
C145        H148   1.081       .  S
C146        C147   1.397       .  A
C147        H149   1.082       .  S
N150        N151   1.320       .  A
N150        C154   1.333       .  A
N151        C152   1.359       .  A
C152        C153   1.400       .  A
C152        H155   1.081       .  S
C153        C154   1.390       .  A
C154        H156   1.080       .  S
N157        N158   1.325       .  A
N157        C161   1.352       .  A
N157       Cu165   2.090       .  S
N158        C159   1.346       .  A
N158       Cu164   2.117       .  S
C159        C160   1.395       .  A
C159        H162   1.081       .  S
C160        C161   1.389       .  A
C161        H163   1.081       .  S
Cu164       N167   2.116       .  S
Cu165       N175   2.081       .  S
Cu166       N168   2.071       .  S
Cu166       N174   2.073       .  S
N167        N168   1.320       .  A
N167        C171   1.361       .  A
N168        C169   1.335   1_554  A
C169        C170   1.390       .  A
C169        H172   1.079       .  S
C170        C171   1.404   1_556  A
C171        H173   1.082       .  S
N174        N175   1.316       .  A
N174        C178   1.342       .  A
N175        C176   1.349       .  A
C176        C177   1.395       .  A
C176        H179   1.081       .  S
C177        C178   1.397       .  A
C178        H180   1.080   1_554  S
N181        N182   1.320       .  A
N181        C185   1.331       .  A
N181       Cu189   2.063       .  S
N182        C183   1.356       .  A
N182       Cu188   2.088       .  S
C183        C184   1.395       .  A
C183        H186   1.081       .  S
C184        C185   1.388       .  A
C185        H187   1.081   1_655  S
Cu188       N191   2.090       .  S
Cu189       N199   2.062       .  S
Cu190       N192   2.091       .  S
Cu190       N198   2.086       .  S
N191        N192   1.319       .  A
N191        C195   1.340       .  A
N192        C193   1.353       .  A
C193        C194   1.399       .  A
C193        H196   1.083       .  S
C194        C195   1.397       .  A
C195        H197   1.066   1_565  S
N198        N199   1.316       .  A
N198        C202   1.344       .  A
N199        C200   1.345       .  A
C200        C201   1.393       .  A
C200        H203   1.082   1_655  S
C201        C202   1.395       .  A
C202        H204   1.077       .  S
C205        C206   1.218       .  T
C207        C208   1.212       .  T
C209        C210   1.214       .  T
C211        C212   1.215       .  T
C213        C214   1.217       .  T
C215        C216   1.214       .  T
C217        C218   1.210       .  T
C219        C220   1.216       .  T
C221        C222   1.216       .  T
C223        C224   1.215       .  T
C225        C226   1.210       .  T
C227        C228   1.212       .  T
