geometry optimzed in LAMMPS
_audit_creation_date              2020-11-30 
_audit_creation_method            'lammps2cif' 
_symmetry_space_group_name_H-M    'P1' 
_symmetry_Int_Tables_number       1 
_symmetry_cell_setting            triclinic 
loop_ 
_symmetry_equiv_pos_as_xyz 
  x,y,z 
_cell_length_a                    23.02368985 
_cell_length_b                    23.341594578274144 
_cell_length_c                    23.096860554183596 
_cell_angle_alpha                 90.84048329128807 
_cell_angle_beta                  90.30947001612941 
_cell_angle_gamma                 89.93911621287575 
loop_ 
_atom_site_label 
_atom_site_type_symbol 
_atom_site_fract_x 
_atom_site_fract_y 
_atom_site_fract_z 
_atom_site_charge 
N1          N  0.89885084  0.75627362  0.08357449    -0.27000
N2          N  0.84527078  0.75613743  0.06317693    -0.34800
C3          C  0.84364665  0.72267373  0.01523350     0.01400
C4          C  0.90023099  0.70619473  0.00120501     0.07400
C5          C  0.93301150  0.72540488  0.04824359    -0.05700
H6          H  0.80536282  0.71682263  0.98843300     0.08100
H7          H  0.97913041  0.72013084  0.05531002     0.09300
Cu8        Cu  0.78527656  0.81845637  0.08917824     0.44200
Cu9        Cu  0.92671616  0.80611311  0.15194299     0.42000
Cu10       Cu  0.83178466  0.90219782  0.22001687     0.43900
N11         N  0.75182630  0.89871593  0.11310596    -0.34400
N12         N  0.76850259  0.92721467  0.16011805    -0.28600
C13         C  0.74558084  0.97996919  0.15907625    -0.04700
C14         C  0.71203732  0.98666196  0.10898799     0.07500
C15         C  0.71747502  0.93321036  0.08126148     0.01300
H16         H  0.75654629  0.01085887  0.19194532     0.08900
H17         H  0.70018024  0.92123259  0.03918404     0.08000
N18         N  0.91484377  0.88661726  0.25287914    -0.35800
N19         N  0.95096349  0.85517006  0.22220257    -0.28000
C20         C  0.00509366  0.86325926  0.24155266    -0.03200
C21         C  0.00461762  0.89955512  0.29021391     0.05400
C22         C  0.94529547  0.91361507  0.29517478     0.03500
H23         H  0.04148167  0.84748132  0.21711113     0.08600
H24         H  0.92617161  0.94621487  0.32248549     0.07400
C25         C  0.17491479  0.42789137  0.96049121    -0.02200
C26         C  0.91554139  0.42494790  0.95560576    -0.02200
C27         C  0.92169705  0.67763699  0.94433350    -0.02200
C28         C  0.18024318  0.68305215  0.94902113    -0.02200
N29         N  0.17711320  0.84424745  0.25007600    -0.27000
N30         N  0.20206991  0.89494371  0.25648211    -0.34800
C31         C  0.16581106  0.93026451  0.28552698     0.01400
C32         C  0.11558104  0.90057852  0.30039304     0.07400
C33         C  0.12709944  0.84493824  0.28005467    -0.05700
H34         H  0.17469348  0.97525675  0.29262211     0.08100
H35         H  0.09825606  0.80850775  0.28214177     0.09300
Cu36       Cu  0.28223453  0.91751722  0.22186132     0.44200
Cu37       Cu  0.19487749  0.78746655  0.18002692     0.42000
Cu38       Cu  0.28044884  0.86524559  0.08036807     0.43900
N39         N  0.34431562  0.94284071  0.16256276    -0.34400
N40         N  0.33734165  0.92747111  0.10798889    -0.28600
C41         C  0.36867649  0.96170033  0.07456132    -0.04700
C42         C  0.39743556  0.00210662  0.10929532     0.07500
C43         C  0.38331048  0.98587362  0.16553337     0.01300
H44         H  0.36667849  0.95949494  0.02782057     0.08900
H45         H  0.39590317  0.00751141  0.20536946     0.08000
N46         N  0.23515370  0.79297685  0.05675563    -0.35800
N47         N  0.20550571  0.76106593  0.09252146    -0.28000
C48         C  0.18212445  0.71719130  0.06143921    -0.03200
C49         C  0.19901967  0.72067315  0.00282628     0.05400
C50         C  0.23126789  0.77131700  0.00298017     0.03500
H51         H  0.15217829  0.68765006  0.08037941     0.08600
H52         H  0.24782055  0.79450249  0.96674842     0.07400
N53         N  0.74321439  0.19014315  0.80229324    -0.27000
N54         N  0.75689754  0.16382346  0.75317238    -0.34800
C55         C  0.73373493  0.11100565  0.75268022     0.01400
C56         C  0.70417182  0.10148301  0.80438729     0.07400
C57         C  0.71147119  0.15375085  0.83433614    -0.05700
H58         H  0.74090312  0.08193321  0.71713929     0.08100
H59         H  0.69630881  0.16390456  0.87753632     0.09300
Cu60       Cu  0.81713112  0.19249689  0.69207959     0.44200
Cu61       Cu  0.77452976  0.27220975  0.82604083     0.42000
Cu62       Cu  0.91819305  0.26015984  0.77974785     0.43900
N63         N  0.90182922  0.20733405  0.66334619    -0.34400
N64         N  0.94009039  0.22616751  0.70132990    -0.28600
C65         C  0.99345778  0.22116361  0.67981146    -0.04700
C66         C  0.99053164  0.20013203  0.62302734     0.07500
C67         C  0.93042898  0.19149150  0.61482297     0.01300
H68         H  0.03152103  0.22838918  0.70633366     0.08900
H69         H  0.90863531  0.17149621  0.57868116     0.08000
N70         N  0.89127239  0.32450721  0.83362915    -0.35800
N71         N  0.83672755  0.33547256  0.84633626    -0.28000
C72         C  0.83571566  0.38059737  0.88373515    -0.03200
C73         C  0.89295922  0.39449890  0.89975144     0.05400
C74         C  0.92623360  0.35920743  0.86402462     0.01900
H75         H  0.79666928  0.39640261  0.90440779     0.08600
H76         H  0.97294205  0.35443822  0.86391486     0.07400
C77         C  0.42720933  0.05759860  0.08843562    -0.02200
C78         C  0.41491623  0.05883334  0.83131621    -0.02200
C79         C  0.67168838  0.04647689  0.82482560    -0.02200
C80         C  0.68290463  0.04151813  0.08478092    -0.02200
N81         N  0.90207778  0.21236601  0.25931057    -0.27000
N82         N  0.93477377  0.25105646  0.23431571    -0.34800
C83         C  0.98925082  0.24658241  0.25386432     0.01400
C84         C  0.99279514  0.20452733  0.29613266     0.07400
C85         C  0.93543386  0.18386244  0.29770367    -0.05700
H86         H  0.02332570  0.27062309  0.23422228     0.08100
H87         H  0.92012566  0.14681625  0.32043963     0.09300
Cu88       Cu  0.91091549  0.30634201  0.16916221     0.44200
Cu89       Cu  0.81930380  0.19069765  0.22698103     0.42000
Cu90       Cu  0.80083086  0.25399635  0.08326183     0.43900
N91         N  0.88751970  0.34772441  0.09417797    -0.34400
N92         N  0.84589102  0.32644115  0.06153857    -0.28600
C93         C  0.84592885  0.35242003  0.01043544    -0.04700
C94         C  0.89041081  0.39342558  0.00922577     0.07500
C95         C  0.91518063  0.38863380  0.06468821     0.01300
H96         H  0.81785922  0.33747204  0.97632966     0.08900
H97         H  0.95540179  0.40716729  0.07998745     0.08000
N98         N  0.76153869  0.17977688  0.10944565    -0.35800
N99         N  0.76132987  0.16070348  0.16290309    -0.28000
C100        C  0.72956251  0.11234470  0.16360393    -0.03200
C101        C  0.71482249  0.09616875  0.10684998     0.05400
C102        C  0.73299810  0.14278286  0.07475486     0.03500
H103        H  0.71844508  0.09085399  0.20301700     0.08600
H104        H  0.72612431  0.14995029  0.02912496     0.07400
N105        N  0.21272493  0.75051674  0.80622995    -0.27000
N106        N  0.26300637  0.75900835  0.83314642    -0.34800
C107        C  0.26237913  0.72971859  0.88320479     0.01400
C108        C  0.20701480  0.70679817  0.89212560     0.07400
C109        C  0.17792807  0.71976533  0.84070217    -0.05700
H110        H  0.29781707  0.73042192  0.91413998     0.08100
H111        H  0.13300883  0.71064573  0.83030144     0.09300
Cu112      Cu  0.31954180  0.82841672  0.81539403     0.44200
Cu113      Cu  0.18650285  0.78662842  0.72724860     0.42000
Cu114      Cu  0.22912740  0.92701205  0.73842568     0.43900
N115        N  0.34287579  0.91556838  0.80411729    -0.34400
N116        N  0.30562141  0.95071549  0.77953190    -0.28600
C117        C  0.32528676  0.00453255  0.78376393    -0.04700
C118        C  0.37985399  0.00527198  0.81019239     0.07500
C119        C  0.38867838  0.94718264  0.82346831     0.01300
H120        H  0.29873491  0.04042455  0.77145457     0.08900
H121        H  0.42453029  0.92982044  0.84804591     0.08000
N122        N  0.16548624  0.90112121  0.68017911    -0.35800
N123        N  0.15354293  0.84698984  0.66928747    -0.28000
C124        C  0.11161555  0.84427825  0.62798149    -0.03200
C125        C  0.09255631  0.89995122  0.61540855     0.05400
C126        C  0.13008534  0.93421000  0.64901071     0.03500
H127        H  0.09403198  0.80454837  0.61092659     0.08600
H128        H  0.13010021  0.98037303  0.65336529     0.07400
C129        C  0.04790952  0.18213392  0.32878027    -0.02200
C130        C  0.05742105  0.92523753  0.32451614    -0.02200
C131        C  0.03720349  0.92117696  0.58226497    -0.02200
C132        C  0.04278773  0.17650626  0.58739150    -0.02200
N133        N  0.15815342  0.25847991  0.66798639    -0.27000
N134        N  0.18540915  0.20930062  0.66040257    -0.34800
C135        C  0.15134189  0.17375492  0.62887797     0.01400
C136        C  0.10027781  0.20227511  0.61307207     0.07400
C137        C  0.10848978  0.25727851  0.63678556    -0.05700
H138        H  0.16203180  0.12924401  0.62138841     0.08100
H139        H  0.07666147  0.29140239  0.63779304     0.09300
Cu140      Cu  0.26587527  0.19205824  0.69828912     0.44200
Cu141      Cu  0.17848220  0.31215079  0.73891830     0.42000
Cu142      Cu  0.31156998  0.28330284  0.82043667     0.43900
N143        N  0.33611138  0.17390424  0.75213421    -0.34400
N144        N  0.34595421  0.20172248  0.80138697    -0.28600
C145        C  0.37673069  0.16722665  0.83642457    -0.04700
C146        C  0.38762720  0.11498776  0.80782433     0.07500
C147        C  0.36428999  0.12342472  0.75292055     0.01300
H148        H  0.38793896  0.17852898  0.88066097     0.08900
H149        H  0.36234076  0.09223564  0.71787708     0.08000
N150        N  0.25407427  0.35025461  0.84077058    -0.35800
N151        N  0.20131656  0.35151331  0.81826971    -0.28000
C152        C  0.16629330  0.38018491  0.85507163    -0.03200
C153        C  0.19837620  0.40010893  0.90308157     0.05400
C154        C  0.25492748  0.38307499  0.88933471     0.03500
H155        H  0.12005870  0.38405705  0.84796442     0.08600
H156        H  0.29361684  0.39044738  0.91505931     0.07400
N157        N  0.18320264  0.21421685  0.24760813    -0.27000
N158        N  0.16183951  0.26654690  0.25049432    -0.34800
C159        C  0.11535072  0.26558489  0.28608970     0.01400
C160        C  0.10341459  0.20868219  0.30154453     0.07400
C161        C  0.14908546  0.17842479  0.27639643    -0.05700
H162        H  0.08879059  0.30275247  0.29566376     0.08100
H163        H  0.15588655  0.13266043  0.27535602     0.09300
Cu164      Cu  0.18597337  0.32735232  0.18769861     0.44200
Cu165      Cu  0.25556760  0.18895658  0.20314297     0.42000
Cu166      Cu  0.30483391  0.26947560  0.09259204     0.43900
N167        N  0.20769553  0.35846117  0.10456139    -0.34400
N168        N  0.24762940  0.33449091  0.07133655    -0.28600
C169        C  0.24313629  0.35488327  0.01766217    -0.04700
C170        C  0.19968422  0.39656096  0.01504900     0.07500
C171        C  0.17826082  0.39671855  0.07219110     0.01300
H172        H  0.26796291  0.33597831  0.98327895     0.08900
H173        H  0.13940538  0.41745945  0.08764954     0.08000
N174        N  0.34789966  0.19534780  0.11543340    -0.35800
N175        N  0.32767357  0.16457578  0.15777883    -0.28000
C176        C  0.35465542  0.11386276  0.15835602    -0.03200
C177        C  0.39540024  0.11122413  0.11368978     0.05400
C178        C  0.38909128  0.16497872  0.08773251     0.03500
H179        H  0.34066700  0.08083691  0.18684516     0.08600
H180        H  0.40707216  0.17831176  0.04703046     0.07400
N181        N  0.92257945  0.83679315  0.65839881    -0.27000
N182        N  0.89108610  0.88112451  0.64199195    -0.34800
C183        C  0.92501123  0.91562406  0.61042177     0.01400
C184        C  0.98156977  0.89352130  0.60781827     0.07400
C185        C  0.97677594  0.84275068  0.63852742    -0.05700
H186        H  0.91082832  0.95734048  0.59657072     0.08100
H187        H  0.01017858  0.81298962  0.65002717     0.09300
Cu188      Cu  0.80965910  0.90417932  0.67576847     0.44200
Cu189      Cu  0.90164681  0.77581187  0.71974213     0.42000
Cu190      Cu  0.81451298  0.85147983  0.81610721     0.43900
N191        N  0.75292779  0.93425351  0.74008186    -0.34400
N192        N  0.75976510  0.91640416  0.79342275    -0.28600
C193        C  0.72915045  0.94953090  0.82975496    -0.04700
C194        C  0.70142120  0.99241491  0.79871818     0.07500
C195        C  0.71560458  0.97890866  0.74107379     0.01300
H196        H  0.73016869  0.94421542  0.87615697     0.08900
H197        H  0.70162620  0.00101991  0.70270915     0.08000
N198        N  0.85852502  0.77920222  0.83898533    -0.35800
N199        N  0.88856890  0.74672503  0.80316145    -0.28000
C200        C  0.91260608  0.70369030  0.83352451    -0.03200
C201        C  0.89669244  0.70957627  0.89181745     0.05400
C202        C  0.86329330  0.75935848  0.89254456     0.03500
H203        H  0.94273396  0.67296518  0.81539442     0.08600
H204        H  0.84684700  0.78338445  0.92902836     0.07400
C205        C  0.03861669  0.98769072  0.58929930    -0.05200
C206        C  0.07789271  0.01792284  0.55441529    -0.32600
C207        C  0.08200257  0.07734140  0.55657265     0.36700
C208        C  0.04575468  0.11015364  0.59327183    -0.05500
C209        C  0.01250213  0.07973147  0.63405633    -0.32500
C210        C  0.01058378  0.01963583  0.63376836     0.36600
H211        H  0.10616354  0.99513496  0.52463618     0.16900
O212        O  0.12113555  0.10313888  0.52119648    -0.60000
H213        H  0.98868314  0.10186462  0.66776577     0.17000
O214        O  0.98401435  0.99335839  0.67918530    -0.60100
H215        H  0.01574632  0.98438533  0.70681915     0.44000
H216        H  0.10301440  0.09977393  0.48261842     0.43900
C217        C  0.04913614  0.91170451  0.39057366    -0.05200
C218        C  0.00341856  0.93963160  0.41964032    -0.32600
C219        C  0.99556808  0.93688092  0.47939543     0.36700
C220        C  0.03652710  0.90866495  0.51536259    -0.05500
C221        C  0.08097011  0.87785465  0.48684496    -0.32500
C222        C  0.08702403  0.87823938  0.42585091     0.36600
H223        H  0.97561618  0.96891394  0.39688289     0.16900
O224        O  0.95184652  0.96952710  0.50262704    -0.60000
H225        H  0.11319395  0.85494815  0.51157148     0.17000
O226        O  0.13222985  0.84768591  0.40267834    -0.60100
H227        H  0.11840542  0.80750560  0.40059125     0.44000
H228        H  0.91523158  0.95071402  0.48986453     0.43900
C229        C  0.05391081  0.11544524  0.32189254    -0.05200
C230        C  0.02482469  0.08363972  0.27828353    -0.32600
C231        C  0.02822879  0.02337597  0.27500930     0.36700
C232        C  0.05875134  0.99215332  0.31824551    -0.05500
C233        C  0.09314901  0.02465412  0.35729040    -0.32500
C234        C  0.09344419  0.08473709  0.35696557     0.36600
H235        H  0.00099772  0.10527131  0.24457201     0.16900
O236        O  0.00588171  0.99643966  0.22657420    -0.60000
H237        H  0.12134577  0.00311004  0.38774007     0.17000
O238        O  0.13424348  0.11363784  0.38953325    -0.60100
H239        H  0.17260939  0.10143519  0.37436349     0.44000
H240        H  0.96414727  0.00705889  0.22487829     0.43900
C241        C  0.03559434  0.19087328  0.52124819    -0.05200
C242        C  0.07590260  0.22604089  0.49215291    -0.32600
C243        C  0.07970817  0.22727570  0.43106336     0.36700
C244        C  0.04064034  0.19492861  0.39550225    -0.05500
C245        C  0.99685262  0.16492748  0.42487429    -0.32500
C246        C  0.99509084  0.16092045  0.48538023     0.36600
H247        H  0.10824524  0.25009366  0.51625228     0.16900
O248        O  0.12541171  0.25638268  0.40790489    -0.60000
H249        H  0.96756023  0.13741936  0.40093368     0.17000
O250        O  0.95775262  0.12148171  0.50800368    -0.60100
H251        H  0.97265562  0.08342461  0.49557852     0.44000
H252        H  0.11445918  0.29742413  0.41058945     0.43900
C253        C  0.67668066  0.04141678  0.89258333    -0.05200
C254        C  0.72927345  0.05407640  0.92227556    -0.32600
C255        C  0.73437238  0.04855359  0.98293057     0.36700
C256        C  0.68471659  0.03652356  0.01680474    -0.05500
C257        C  0.63717189  0.01307833  0.98622535    -0.32500
C258        C  0.63385331  0.01326078  0.92576098     0.36600
H259        H  0.76726757  0.06654163  0.89811857     0.16900
O260        O  0.78791721  0.05543791  0.00834852    -0.60000
H261        H  0.60319933  0.99189769  0.00948544     0.17000
O262        O  0.59020147  0.98242245  0.89983687    -0.60100
H263        H  0.60607449  0.94320424  0.89441629     0.44000
H264        H  0.80271530  0.01601605  0.01412840     0.43900
C265        C  0.60576018  0.05337063  0.80861518    -0.05200
C266        C  0.57705391  0.10128301  0.83250888    -0.32600
C267        C  0.51670015  0.10486039  0.83596639     0.36700
C268        C  0.48047350  0.06059591  0.81327419    -0.05500
C269        C  0.50838886  0.01585333  0.78234177    -0.32500
C270        C  0.56987710  0.01149355  0.78027763     0.36600
H271        H  0.60142052  0.13433031  0.85490580     0.16900
O272        O  0.49398417  0.15006678  0.86692112    -0.60000
H273        H  0.48305787  0.98161889  0.76290898     0.17000
O274        O  0.59313611  0.96285064  0.75599901    -0.60100
H275        H  0.59004140  0.96820005  0.71359826     0.44000
H276        H  0.50149073  0.14146552  0.90824350     0.43900
C277        C  0.42134948  0.05620907  0.02126847    -0.05200
C278        C  0.37095407  0.07686048  0.99285761    -0.32600
C279        C  0.36593625  0.07543029  0.93225989     0.36700
C280        C  0.41291168  0.05565266  0.89817626    -0.05500
C281        C  0.45593333  0.02393437  0.92701728    -0.32500
C282        C  0.45970545  0.02296962  0.98701470     0.36600
H283        H  0.33430458  0.09258563  0.01754489     0.16900
O284        O  0.31444790  0.09176917  0.90735837    -0.60000
H285        H  0.48628843  0.99814907  0.90272489     0.17000
O286        O  0.49898113  0.98651816  0.01167043    -0.60100
H287        H  0.48001017  0.94842801  0.01120131     0.44000
H288        H  0.29090147  0.05626434  0.90457018     0.43900
C289        C  0.61818087  0.05011662  0.10305381    -0.05200
C290        C  0.58948919  0.09848337  0.08091928    -0.32600
C291        C  0.52910929  0.10406267  0.08123160     0.36700
C292        C  0.49340283  0.06078571  0.10466978    -0.05500
C293        C  0.52245755  0.01615733  0.13433669    -0.32500
C294        C  0.58362453  0.01049620  0.13364023     0.36600
H295        H  0.61388449  0.13034800  0.05769091     0.16900
O296        O  0.50583725  0.14856537  0.05102509    -0.60000
H297        H  0.49823696  0.98242729  0.15460267     0.17000
O298        O  0.60780240  0.96370896  0.15956584    -0.60100
H299        H  0.61724066  0.97664322  0.19952556     0.44000
H300        H  0.51340828  0.18324036  0.07525356     0.43900
C301        C  0.11298181  0.68647225  0.94175824    -0.05200
C302        C  0.08314153  0.64042238  0.91502904    -0.32600
C303        C  0.02269880  0.63888566  0.91204546     0.36700
C304        C  0.98899290  0.68267399  0.93817870    -0.05500
C305        C  0.01858180  0.73414860  0.95185392    -0.32500
C306        C  0.07960945  0.73631165  0.95422296     0.36600
H307        H  0.10667941  0.60495006  0.89560522     0.16900
O308        O  0.99709412  0.59523645  0.88130050    -0.60000
H309        H  0.99428015  0.77255085  0.96263815     0.17000
O310        O  0.10558363  0.78750475  0.96817674    -0.60100
H311        H  0.11529030  0.80489942  0.93054525     0.44000
H312        H  0.00891365  0.60031011  0.84044820     0.43900
C313        C  0.90033124  0.49039969  0.95953640    -0.05200
C314        C  0.86925230  0.51943032  0.91549493    -0.32600
C315        C  0.87080042  0.58001145  0.91079263     0.36700
C316        C  0.90446394  0.61340248  0.95031647    -0.05500
C317        C  0.92895726  0.58464392  0.99764414    -0.32500
C318        C  0.92671279  0.52534730  0.00297201     0.36600
H319        H  0.84659417  0.49557381  0.88195769     0.16900
O320        O  0.84076760  0.60517755  0.86650664    -0.60000
H321        H  0.95447962  0.60825184  0.02946508     0.17000
O322        O  0.95795129  0.50207826  0.04729182    -0.60100
H323        H  0.93556951  0.51117453  0.08285765     0.44000
H324        H  0.86082940  0.59286369  0.83051111     0.43900
C325        C  0.10750923  0.42213336  0.95728528    -0.05200
C326        C  0.07588843  0.45989871  0.92179118    -0.32600
C327        C  0.01545119  0.45659988  0.91700359     0.36700
C328        C  0.98329512  0.42073544  0.95372629    -0.05500
C329        C  0.01482545  0.37685911  0.98113590    -0.32500
C330        C  0.07573411  0.37616273  0.98145778     0.36600
H331        H  0.09848628  0.49051893  0.89529532     0.16900
O332        O  0.98811615  0.48614628  0.87396252    -0.60000
H333        H  0.99260065  0.34098908  0.00004983     0.17000
O334        O  0.10296803  0.32860574  0.00272274    -0.60100
H335        H  0.11214686  0.30457562  0.96819917     0.44000
H336        H  0.99513697  0.46361273  0.83788430     0.43900
C337        C  0.19028950  0.49364415  0.96539535    -0.05200
C338        C  0.22512539  0.52171488  0.92408699    -0.32600
C339        C  0.22854271  0.58220212  0.92094894     0.36700
C340        C  0.19630970  0.61807453  0.95960659    -0.05500
C341        C  0.16678248  0.58947688  0.00411669    -0.32500
C342        C  0.16310174  0.52969415  0.00715837     0.36600
H343        H  0.24802801  0.49737153  0.89132768     0.16900
O344        O  0.26018096  0.60458380  0.87667054    -0.60000
H345        H  0.13813111  0.61281203  0.03236623     0.17000
O346        O  0.12686775  0.50771827  0.04803940    -0.60100
H347        H  0.08684488  0.51636498  0.03472939     0.44000
H348        H  0.30094527  0.60448032  0.89059582     0.43900
loop_ 
_geom_bond_atom_site_label_1 
_geom_bond_atom_site_label_2 
_geom_bond_distance 
_geom_bond_site_symmetry_2 
_ccdc_geom_bond_type 
N1            N2   1.318       .  A
N1            C5   1.339       .  A
N1           Cu9   2.048       .  S
N2            C3   1.346       .  A
N2           Cu8   2.089       .  S
C3            C4   1.396       .  A
C3            H6   1.082   1_554  S
C4            C5   1.389       .  A
C4           C27   1.547   1_554  S
C5            H7   1.081       .  S
Cu8          N11   2.093       .  S
Cu9          N19   2.048       .  S
Cu10         N12   2.092       .  S
Cu10         N18   2.087       .  S
N11          N12   1.321       .  A
N11          C15   1.351       .  A
N12          C13   1.340       .  A
C13          C14   1.398       .  A
C13          H16   1.069   1_565  S
C14          C15   1.400       .  A
C14          C80   1.555   1_565  S
C15          H17   1.081       .  S
N18          N19   1.312       .  A
N18          C22   1.349       .  A
N19          C20   1.334   1_655  A
C20          C21   1.398       .  A
C20          H23   1.075       .  S
C21          C22   1.409   1_455  A
C21         C130   1.563       .  S
C22          H24   1.077       .  S
C25         C153   1.566       .  S
C25         C170   1.570   1_556  S
C25         C325   1.559       .  S
C25         C337   1.578       .  S
C26          C73   1.551       .  S
C26          C94   1.564   1_556  S
C26         C313   1.568       .  S
C26         C328   1.564       .  S
C27         C201   1.542       .  S
C27         C304   1.561       .  S
C27         C316   1.560       .  S
C28          C49   1.570   1_556  S
C28         C108   1.564       .  S
C28         C301   1.559       .  S
C28         C340   1.583       .  S
N29          N30   1.322       .  A
N29          C33   1.347       .  A
N29         Cu37   2.118       .  S
N30          C31   1.347       .  A
N30         Cu36   2.087       .  S
C31          C32   1.396       .  A
C31          H34   1.080       .  S
C32          C33   1.400       .  A
C32         C130   1.559       .  S
C33          H35   1.081       .  S
Cu36         N39   2.077       .  S
Cu37         N47   2.120       .  S
Cu38         N40   2.049       .  S
Cu38         N46   2.050       .  S
N39          N40   1.315       .  A
N39          C43   1.349       .  A
N40          C41   1.334       .  A
C41          C42   1.395   1_565  A
C41          H44   1.081       .  S
C42          C43   1.398   1_545  A
C42          C77   1.550       .  S
C43          H45   1.081   1_565  S
N46          N47   1.315       .  A
N46          C50   1.337       .  A
N47          C48   1.353       .  A
C48          C49   1.414       .  A
C48          H51   1.075       .  S
C49          C50   1.397       .  A
C50          H52   1.075   1_554  S
N53          N54   1.322       .  A
N53          C57   1.352       .  A
N53         Cu61   2.111       .  S
N54          C55   1.344       .  A
N54         Cu60   2.101       .  S
C55          C56   1.399       .  A
C55          H58   1.071       .  S
C56          C57   1.403       .  A
C56          C79   1.567       .  S
C57          H59   1.082       .  S
Cu60         N63   2.094       .  S
Cu61         N71   2.104       .  S
Cu62         N64   2.032       .  S
Cu62         N70   2.035       .  S
N63          N64   1.312       .  A
N63          C67   1.350       .  A
N64          C65   1.332       .  A
C65          C66   1.395       .  A
C65          H68   1.079   1_655  S
C66          C67   1.410       .  A
C66         C132   1.557   1_655  S
C67          H69   1.073       .  S
N70          N71   1.315       .  A
N70          C74   1.332       .  A
N71          C72   1.353       .  A
C72          C73   1.404       .  A
C72          H75   1.082       .  S
C73          C74   1.390       .  A
C74          H76   1.081       .  S
C77         C177   1.557       .  S
C77         C277   1.556       .  S
C77         C292   1.569       .  S
C78         C118   1.560       .  S
C78         C146   1.556       .  S
C78         C268   1.569       .  S
C78         C280   1.548       .  S
C79         C194   1.551   1_545  S
C79         C253   1.575       .  S
C79         C265   1.570       .  S
C80         C101   1.551       .  S
C80         C256   1.573       .  S
C80         C289   1.563       .  S
N81          N82   1.318       .  A
N81          C85   1.352       .  A
N81         Cu89   2.103       .  S
N82          C83   1.335       .  A
N82         Cu88   2.068       .  S
C83          C84   1.397       .  A
C83          H86   1.072   1_655  S
C84          C85   1.407       .  A
C84         C129   1.566   1_655  S
C85          H87   1.079       .  S
Cu88         N91   2.064       .  S
Cu89         N99   2.101       .  S
Cu90         N92   2.055       .  S
Cu90         N98   2.056       .  S
N91          N92   1.310       .  A
N91          C95   1.344       .  A
N92          C93   1.335       .  A
C93          C94   1.403       .  A
C93          H96   1.071   1_554  S
C94          C95   1.405       .  A
C95          H97   1.078       .  S
N98          N99   1.319       .  A
N98         C102   1.340       .  A
N99         C100   1.346       .  A
C100        C101   1.399       .  A
C100        H103   1.078       .  S
C101        C102   1.392       .  A
C102        H104   1.080       .  S
N105        N106   1.325       .  A
N105        C109   1.348       .  A
N105       Cu113   2.106       .  S
N106        C107   1.352       .  A
N106       Cu112   2.125       .  S
C107        C108   1.400       .  A
C107        H110   1.082       .  S
C108        C109   1.397       .  A
C109        H111   1.081       .  S
Cu112       N115   2.125       .  S
Cu113       N123   2.096       .  S
Cu114       N116   2.068       .  S
Cu114       N122   2.069       .  S
N115        N116   1.318       .  A
N115        C119   1.358       .  A
N116        C117   1.338   1_565  A
C117        C118   1.394       .  A
C117        H120   1.077       .  S
C118        C119   1.409   1_545  A
C119        H121   1.081       .  S
N122        N123   1.314       .  A
N122        C126   1.337       .  A
N123        C124   1.354       .  A
C124        C125   1.405       .  A
C124        H127   1.080       .  S
C125        C126   1.402       .  A
C125        C131   1.567       .  S
C126        H128   1.081       .  S
C129        C160   1.560       .  S
C129        C229   1.568       .  S
C129        C244   1.575       .  S
C130        C217   1.575       .  S
C130        C232   1.571       .  S
C131        C184   1.558   1_455  S
C131        C205   1.559       .  S
C131        C220   1.568       .  S
C132        C136   1.565       .  S
C132        C208   1.558       .  S
C132        C241   1.577       .  S
N133        N134   1.318       .  A
N133        C137   1.348       .  A
N133       Cu141   2.099       .  S
N134        C135   1.346       .  A
N134       Cu140   2.086       .  S
C135        C136   1.400       .  A
C135        H138   1.079       .  S
C136        C137   1.401       .  A
C137        H139   1.082       .  S
Cu140       N143   2.082       .  S
Cu141       N151   2.103       .  S
Cu142       N144   2.103       .  S
Cu142       N150   2.097       .  S
N143        N144   1.320       .  A
N143        C147   1.345       .  A
N144        C145   1.348       .  A
C145        C146   1.401       .  A
C145        H148   1.081       .  S
C146        C147   1.391       .  A
C147        H149   1.081       .  S
N150        N151   1.319       .  A
N150        C154   1.349       .  A
N151        C152   1.345       .  A
C152        C153   1.403       .  A
C152        H155   1.080       .  S
C153        C154   1.398       .  A
C154        H156   1.081       .  S
N157        N158   1.317       .  A
N157        C161   1.334       .  A
N157       Cu165   2.044       .  S
N158        C159   1.354       .  A
N158       Cu164   2.121       .  S
C159        C160   1.408       .  A
C159        H162   1.082       .  S
C160        C161   1.391       .  A
C161        H163   1.079       .  S
Cu164       N167   2.125       .  S
Cu165       N175   2.044       .  S
Cu166       N168   2.071       .  S
Cu166       N174   2.067       .  S
N167        N168   1.320       .  A
N167        C171   1.352       .  A
N168        C169   1.338       .  A
C169        C170   1.396       .  A
C169        H172   1.071   1_554  S
C170        C171   1.411       .  A
C171        H173   1.077       .  S
N174        N175   1.310       .  A
N174        C178   1.343       .  A
N175        C176   1.336       .  A
C176        C177   1.399       .  A
C176        H179   1.072       .  S
C177        C178   1.406       .  A
C178        H180   1.079       .  S
N181        N182   1.322       .  A
N181        C185   1.340       .  A
N181       Cu189   2.082       .  S
N182        C183   1.347       .  A
N182       Cu188   2.101       .  S
C183        C184   1.401       .  A
C183        H186   1.079       .  S
C184        C185   1.395       .  A
C185        H187   1.071   1_655  S
Cu188       N191   2.096       .  S
Cu189       N199   2.076       .  S
Cu190       N192   2.043       .  S
Cu190       N198   2.042       .  S
N191        N192   1.315       .  A
N191        C195   1.350       .  A
N192        C193   1.336       .  A
C193        C194   1.392       .  A
C193        H196   1.081       .  S
C194        C195   1.404       .  A
C195        H197   1.079   1_565  S
N198        N199   1.313       .  A
N198        C202   1.331       .  A
N199        C200   1.350       .  A
C200        C201   1.402       .  A
C200        H203   1.079       .  S
C201        C202   1.393       .  A
C202        H204   1.076       .  S
C205        C206   1.411   1_565  A
C205        C210   1.418   1_565  A
C206        C207   1.390       .  A
C206        H211   1.083   1_545  S
C207        C208   1.410       .  A
C207        O212   1.366       .  S
C208        C209   1.416       .  A
C209        C210   1.403       .  A
C209        H213   1.080   1_455  S
C210        O214   1.370   1_445  S
O212        H216   0.984       .  S
O214        H215   0.992   1_655  S
C217        C218   1.406       .  A
C217        C222   1.430       .  A
C218        C219   1.395   1_455  A
C218        H223   1.077   1_455  S
C219        C220   1.421   1_655  A
C219        O224   1.369       .  S
C220        C221   1.411       .  A
C221        C222   1.417       .  A
C221        H225   1.080       .  S
C222        O226   1.368       .  S
O224        H228   0.992       .  S
O226        H227   0.991       .  S
C229        C230   1.409       .  A
C229        C234   1.416       .  A
C230        C231   1.410       .  A
C230        H235   1.081       .  S
C231        C232   1.426   1_545  A
C231        O236   1.373   1_545  S
C232        C233   1.410   1_565  A
C233        C234   1.403       .  A
C233        H237   1.083       .  S
C234        O238   1.372       .  S
O236        H240   0.993   1_465  S
O238        H239   0.992       .  S
C241        C242   1.418       .  A
C241        C246   1.422   1_455  A
C242        C243   1.415       .  A
C242        H247   1.080       .  S
C243        C244   1.424       .  A
C243        O248   1.369       .  S
C244        C245   1.411   1_455  A
C245        C246   1.403       .  A
C245        H249   1.077       .  S
C246        O250   1.371       .  S
O248        H252   0.991       .  S
O250        H251   0.991       .  S
C253        C254   1.418       .  A
C253        C258   1.420       .  A
C254        C255   1.413       .  A
C254        H259   1.082       .  S
C255        C256   1.419   1_556  A
C255        O260   1.371   1_556  S
C256        C257   1.406   1_554  A
C257        C258   1.398       .  A
C257        H261   1.076   1_546  S
C258        O262   1.367   1_545  S
O260        H264   0.991       .  S
O262        H263   0.992       .  S
C265        C266   1.406       .  A
C265        C270   1.430       .  A
C266        C267   1.395       .  A
C266        H271   1.079       .  S
C267        C268   1.421       .  A
C267        O272   1.371       .  S
C268        C269   1.413       .  A
C269        C270   1.420       .  A
C269        H273   1.081   1_545  S
C270        O274   1.369   1_545  S
O272        H276   0.992       .  S
O274        H275   0.991       .  S
C277        C278   1.417   1_554  A
C277        C282   1.413   1_554  A
C278        C279   1.404       .  A
C278        H283   1.082   1_556  S
C279        C280   1.414       .  A
C279        O284   1.371       .  S
C280        C281   1.407       .  A
C281        C282   1.389       .  A
C281        H285   1.077   1_545  S
C282        O286   1.369   1_546  S
O284        H288   0.992       .  S
O286        H287   0.991       .  S
C289        C290   1.409       .  A
C289        C294   1.419       .  A
C290        C291   1.396       .  A
C290        H295   1.083       .  S
C291        C292   1.418       .  A
C291        O296   1.367       .  S
C292        C293   1.420       .  A
C293        C294   1.414       .  A
C293        H297   1.079   1_545  S
C294        O298   1.369   1_545  S
O296        H300   0.992       .  S
O298        H299   0.990       .  S
C301        C302   1.409       .  A
C301        C306   1.420       .  A
C302        C303   1.393       .  A
C302        H307   1.082       .  S
C303        C304   1.413   1_455  A
C303        O308   1.366   1_455  S
C304        C305   1.413   1_655  A
C305        C306   1.407       .  A
C305        H309   1.083   1_455  S
C306        O310   1.370       .  S
O308        H312   0.992   1_655  S
O310        H311   0.991       .  S
C313        C314   1.420       .  A
C313        C318   1.418   1_556  A
C314        C315   1.420       .  A
C314        H319   1.080       .  S
C315        C316   1.419       .  A
C315        O320   1.371       .  S
C316        C317   1.406       .  A
C317        C318   1.392   1_556  A
C317        H321   1.083   1_556  S
C318        O322   1.367       .  S
O320        H324   0.992       .  S
O322        H323   0.992       .  S
C325        C326   1.412       .  A
C325        C330   1.422       .  A
C326        C327   1.397       .  A
C326        H331   1.083       .  S
C327        C328   1.413   1_455  A
C327        O332   1.368   1_455  S
C328        C329   1.410   1_655  A
C329        C330   1.402       .  A
C329        H333   1.081   1_456  S
C330        O334   1.370   1_556  S
O332        H336   0.993       .  S
O334        H335   0.992   1_554  S
C337        C338   1.418       .  A
C337        C342   1.418   1_556  A
C338        C339   1.417       .  A
C338        H343   1.079       .  S
C339        C340   1.426       .  A
C339        O344   1.369       .  S
C340        C341   1.412   1_556  A
C341        C342   1.401       .  A
C341        H345   1.073       .  S
C342        O346   1.369       .  S
O344        H348   0.990       .  S
O346        H347   0.991       .  S
