geometry optimzed in LAMMPS
_audit_creation_date              2020-11-30 
_audit_creation_method            'lammps2cif' 
_symmetry_space_group_name_H-M    'P1' 
_symmetry_Int_Tables_number       1 
_symmetry_cell_setting            triclinic 
loop_ 
_symmetry_equiv_pos_as_xyz 
  x,y,z 
_cell_length_a                    39.12804674 
_cell_length_b                    27.5194425549229 
_cell_length_c                    25.685264826972915 
_cell_angle_alpha                 90.00068690571585 
_cell_angle_beta                  87.77015942993428 
_cell_angle_gamma                 89.99335778141337 
loop_ 
_atom_site_label 
_atom_site_type_symbol 
_atom_site_fract_x 
_atom_site_fract_y 
_atom_site_fract_z 
_atom_site_charge 
N1          N  0.47399701  0.79470823  0.56462852    -0.25000
N2          N  0.49132605  0.82664257  0.53553709    -0.32800
C3          C  0.46918473  0.85391737  0.50945530     0.03400
C4          C  0.43649803  0.83842467  0.52285766     0.09400
C5          C  0.44030995  0.80082582  0.55775077    -0.03700
H6          H  0.47643813  0.88200573  0.48169374     0.10100
H7          H  0.42025495  0.77873870  0.57574429     0.11300
Cu8        Cu  0.04432474  0.83019829  0.52971565     0.44200
Cu9        Cu  0.49722551  0.74286719  0.61015899     0.42000
Cu10       Cu  0.09058070  0.74340077  0.60435045     0.43900
N11         N  0.09732422  0.82606265  0.52814114    -0.32300
N12         N  0.11438290  0.79417842  0.55559524    -0.26600
C13         C  0.14815284  0.80054574  0.54589772    -0.02700
C14         C  0.15233555  0.83816378  0.51068572     0.09500
C15         C  0.11975084  0.85357990  0.50018933     0.03300
H16         H  0.16806638  0.77931551  0.56311264     0.11000
H17         H  0.11280938  0.88254378  0.47414484     0.10000
N18         N  0.06100373  0.69568140  0.64940817    -0.33800
N19         N  0.02714507  0.69529139  0.65155070    -0.26000
C20         C  0.01620970  0.66003326  0.68449744    -0.01200
C21         C  0.04456217  0.63745995  0.70373954     0.07400
C22         C  0.07248931  0.66075324  0.68088613     0.05500
H23         H  0.48965045  0.65169518  0.69383198     0.10600
H24         H  0.09918703  0.65308040  0.68677009     0.09400
C25         C  0.06679587  0.45612913  0.87380979    -0.00200
C26         C  0.03425248  0.42840993  0.89557589    -0.00200
N27         N  0.12705512  0.08983536  0.20476117    -0.25000
N28         N  0.10972586  0.05790287  0.23385478    -0.32800
C29         C  0.13186692  0.03062765  0.25993633     0.03400
C30         C  0.16455385  0.04611793  0.24653164     0.09400
C31         C  0.16074221  0.08371617  0.21163739    -0.03700
H32         H  0.12461290  0.00253983  0.28769921     0.10100
H33         H  0.18079713  0.10580141  0.19364197     0.11300
Cu34       Cu  0.05672735  0.05434963  0.23967940     0.44200
Cu35       Cu  0.10382732  0.14167674  0.15922987     0.42000
Cu36       Cu  0.01047221  0.14114832  0.16504802     0.43900
N37         N  0.00372802  0.05848617  0.24125653    -0.32300
N38         N  0.98666942  0.09037106  0.21380326    -0.26600
C39         C  0.45289934  0.08400351  0.22350003    -0.02700
C40         C  0.44871652  0.04638433  0.25871064     0.09500
C41         C  0.98130132  0.03096810  0.26920725     0.03300
H42         H  0.43298568  0.10523324  0.20628434     0.11000
H43         H  0.98824272  0.00200250  0.29524986     0.10000
N44         N  0.04004853  0.18886629  0.11998749    -0.33800
N45         N  0.07390727  0.18925420  0.11784097    -0.26000
C46         C  0.08484209  0.22451114  0.08489252    -0.01200
C47         C  0.05648921  0.24708577  0.06565336     0.07400
C48         C  0.02856240  0.22379472  0.08851045     0.05500
H49         H  0.11140177  0.23284680  0.07555444     0.10600
H50         H  0.00186443  0.23146851  0.08262838     0.09400
N51         N  0.37709520  0.29472584  0.70470048    -0.25000
N52         N  0.35976612  0.32666724  0.73379140    -0.32800
C53         C  0.38190761  0.35394085  0.75986617     0.03400
C54         C  0.41459444  0.33844063  0.74646020     0.09400
C55         C  0.41078249  0.30083785  0.71157211    -0.03700
H56         H  0.37465412  0.38203331  0.78762776     0.10100
H57         H  0.43083762  0.27874385  0.69357879     0.11300
Cu58       Cu  0.30676720  0.33023303  0.73962781     0.44200
Cu59       Cu  0.35386698  0.24288083  0.65918211     0.42000
Cu60       Cu  0.26051191  0.24343681  0.66501861     0.43900
N61         N  0.25376738  0.32610489  0.74122406    -0.32300
N62         N  0.23670873  0.29421970  0.71377755    -0.26600
C63         C  0.20293918  0.30058747  0.72348873    -0.02700
C64         C  0.19875617  0.33820709  0.75870175     0.09500
C65         C  0.23134085  0.35362348  0.76918459     0.03300
H66         H  0.18302582  0.27935525  0.70628303     0.11000
H67         H  0.23828225  0.38258771  0.79522708     0.10000
N68         N  0.29008565  0.19570198  0.61996169    -0.33800
N69         N  0.32394435  0.19530302  0.61780881    -0.26000
C70         C  0.33487650  0.16003489  0.58486680    -0.01200
C71         C  0.30652180  0.13746432  0.56563913     0.07400
C72         C  0.27859684  0.16076974  0.58849574     0.05500
H73         H  0.36143556  0.15168797  0.57552630     0.10600
H74         H  0.25189838  0.15310242  0.58262195     0.09400
C75         C  0.28425517  0.95612684  0.39559223    -0.00200
C76         C  0.31679688  0.92841301  0.37379431    -0.00200
N77         N  0.22395312  0.58981883  0.06468095    -0.25000
N78         N  0.24128293  0.55787841  0.03558987    -0.32800
C79         C  0.21914216  0.53060322  0.00951548     0.03400
C80         C  0.18645485  0.54610146  0.02292193     0.09400
C81         C  0.19026589  0.58370466  0.05780986    -0.03700
H82         H  0.22639652  0.50251138  0.98175423     0.10100
H83         H  0.17021020  0.60579740  0.07580333     0.11300
Cu84       Cu  0.29428183  0.55431455  0.02975272     0.44200
Cu85       Cu  0.24718033  0.64166462  0.11019964     0.42000
Cu86       Cu  0.34053643  0.64111225  0.10435775     0.43900
N87         N  0.34728160  0.55844274  0.02815514    -0.32300
N88         N  0.36434034  0.59032870  0.05560037    -0.26600
C89         C  0.39810991  0.58396010  0.04588971    -0.02700
C90         C  0.40229269  0.54633905  0.01067837     0.09500
C91         C  0.36970790  0.53092281  0.00019582     0.03300
H92         H  0.41802347  0.60519194  0.06309529     0.11000
H93         H  0.36276618  0.50195763  0.97415513     0.10000
N94         N  0.31096251  0.68884524  0.14941664    -0.33800
N95         N  0.27710372  0.68924276  0.15157180    -0.26000
C96         C  0.26617190  0.72450939  0.18451609    -0.01200
C97         C  0.29452684  0.74708055  0.20374246     0.07800
C98         C  0.32245152  0.72377709  0.18088285     0.05500
H99         H  0.23961317  0.73285459  0.19385947     0.10600
H100        H  0.34915049  0.73144534  0.18675553     0.09400
C101        C  0.29517263  0.78630896  0.24058664    -0.16200
C102        C  0.29738129  0.81900893  0.27148843     0.07900
C103        C  0.30198662  0.85701781  0.30741333     0.09700
C104        C  0.30770718  0.88926567  0.33764676    -0.17000
C105        C  0.30587619  0.09823424  0.52879695    -0.16200
C106        C  0.30366856  0.06553303  0.49789644     0.07900
C107        C  0.29906436  0.02752312  0.46197247     0.09700
C108        C  0.29334492  0.99527450  0.43173942    -0.17000
C109        C  0.19559825  0.02943328  0.26885198    -0.16200
C110        C  0.21985170  0.01436551  0.29154816     0.07900
C111        C  0.24565580  0.99550760  0.32279817     0.09700
C112        C  0.26488365  0.97835026  0.35350418    -0.17000
C113        C  0.41708115  0.02695207  0.28022723    -0.16200
C114        C  0.39151206  0.00877315  0.29942635     0.07900
C115        C  0.36312822  0.98471220  0.32338201     0.09700
C116        C  0.34083002  0.96119128  0.34525226    -0.17000
C117        C  0.43392839  0.52690954  0.98914585    -0.16200
C118        C  0.45950127  0.50873865  0.96993827     0.07900
C119        C  0.48789397  0.48469080  0.94597794     0.09700
C120        C  0.51020331  0.46118094  0.92410923    -0.17000
C121        C  0.04333720  0.38925720  0.93172242    -0.16200
C122        C  0.04905034  0.35700821  0.96195945     0.07900
C123        C  0.05364596  0.31900190  0.99789149     0.09700
C124        C  0.05584760  0.28630670  0.02880055    -0.17000
C125        C  0.44563828  0.35511800  0.76878044    -0.16200
C126        C  0.46988807  0.37018205  0.79148285     0.07900
C127        C  0.49568341  0.38903748  0.82274621     0.09700
C128        C  0.51489987  0.40619198  0.85346719    -0.17000
C129        C  0.16712033  0.35763472  0.78023580    -0.16200
C130        C  0.14154723  0.37580356  0.79944487     0.07900
C131        C  0.11315419  0.39984952  0.82340608     0.09700
C132        C  0.09084482  0.42335835  0.84527589    -0.17000
C133        C  0.08614886  0.47834634  0.91591866    -0.16200
C134        C  0.10536581  0.49550051  0.94663914     0.07900
C135        C  0.13116147  0.51435632  0.97790146     0.09700
C136        C  0.15541129  0.52942168  0.00060275    -0.17000
C137        C  0.33616826  0.90618914  0.41588217    -0.16200
C138        C  0.35539627  0.88903208  0.44658815     0.07900
C139        C  0.38120045  0.87017487  0.47783862     0.09700
C140        C  0.40545386  0.85510821  0.50053573    -0.17000
C141        C  0.04520304  0.59823745  0.74059059    -0.16200
C142        C  0.04740377  0.56554057  0.77149775     0.07900
C143        C  0.05199854  0.52753277  0.80742809     0.09700
C144        C  0.05771119  0.49528264  0.83766399    -0.17000
C145        C  0.18397087  0.85759377  0.48916634    -0.16200
C146        C  0.20954005  0.87577042  0.46996481     0.07900
C147        C  0.23792395  0.89982922  0.44600657     0.09700
C148        C  0.26022219  0.92334886  0.42413477    -0.17000
N149        N  0.97399722  0.79470830  0.56462847    -0.25000
N150        N  0.99132614  0.82664263  0.53553704    -0.32800
C151        C  0.96918487  0.85391747  0.50945521     0.03400
C152        C  0.93649821  0.83842482  0.52285752     0.09400
C153        C  0.94031017  0.80082590  0.55775073    -0.03700
H154        H  0.97643845  0.88200583  0.48169361     0.10100
H155        H  0.92025547  0.77873896  0.57574410     0.11300
Cu156      Cu  0.54432475  0.83019828  0.52971565     0.44200
Cu157      Cu  0.99722566  0.74286723  0.61015896     0.42000
Cu158      Cu  0.59058065  0.74340080  0.60435043     0.43900
N159        N  0.59732429  0.82606260  0.52814118    -0.32300
N160        N  0.61438301  0.79417833  0.55559531    -0.26600
C161        C  0.64815292  0.80054562  0.54589781    -0.02700
C162        C  0.65233566  0.83816361  0.51068588     0.09500
C163        C  0.61975097  0.85357981  0.50018939     0.03300
H164        H  0.66806672  0.77931521  0.56311292     0.11000
H165        H  0.61280967  0.88254368  0.47414495     0.10000
N166        N  0.56100382  0.69568141  0.64940816    -0.33800
N167        N  0.52714511  0.69529136  0.65155072    -0.26000
C168        C  0.51620991  0.66003319  0.68449748    -0.01200
C169        C  0.54456243  0.63745995  0.70373953     0.07400
C170        C  0.57248946  0.66075332  0.68088605     0.05500
H171        H  0.98965009  0.65169535  0.69383185     0.10600
H172        H  0.59918758  0.65308054  0.68676997     0.09400
C173        C  0.56679583  0.45612918  0.87380981    -0.00200
C174        C  0.53425248  0.42840993  0.89557595    -0.00200
N175        N  0.62705523  0.08983545  0.20476110    -0.25000
N176        N  0.60972595  0.05790291  0.23385476    -0.32800
C177        C  0.63186708  0.03062775  0.25993624     0.03400
C178        C  0.66455395  0.04611812  0.24653143     0.09400
C179        C  0.66074230  0.08371633  0.21163727    -0.03700
H180        H  0.62461330  0.00253992  0.28769910     0.10100
H181        H  0.68079748  0.10580176  0.19364166     0.11300
Cu182      Cu  0.55672730  0.05434963  0.23967940     0.44200
Cu183      Cu  0.60382729  0.14167671  0.15922989     0.42000
Cu184      Cu  0.51047229  0.14114824  0.16504810     0.43900
N185        N  0.50372787  0.05848624  0.24125649    -0.32300
N186        N  0.48666930  0.09037121  0.21380314    -0.26600
C187        C  0.95289942  0.08400333  0.22350019    -0.02700
C188        C  0.94871661  0.04638414  0.25871081     0.09500
C189        C  0.48130116  0.03096816  0.26920721     0.03300
H190        H  0.93298597  0.10523288  0.20628468     0.11000
H191        H  0.48824237  0.00200255  0.29524981     0.10000
N192        N  0.54004844  0.18886621  0.11998756    -0.33800
N193        N  0.57390713  0.18925416  0.11784102    -0.26000
C194        C  0.58484186  0.22451117  0.08489250    -0.01200
C195        C  0.55648901  0.24708575  0.06565338     0.07400
C196        C  0.52856230  0.22379463  0.08851053     0.05500
H197        H  0.61140124  0.23284691  0.07555434     0.10600
H198        H  0.50186425  0.23146837  0.08262852     0.09400
N199        N  0.87709525  0.29472583  0.70470047    -0.25000
N200        N  0.85976615  0.32666723  0.73379137    -0.32800
C201        C  0.88190753  0.35394090  0.75986622     0.03400
C202        C  0.91459441  0.33844075  0.74646031     0.09400
C203        C  0.91078254  0.30083792  0.71157216    -0.03700
H204        H  0.87465375  0.38203334  0.78762780     0.10100
H205        H  0.93083768  0.27874404  0.69357895     0.11300
Cu206      Cu  0.80676729  0.33023303  0.73962781     0.44200
Cu207      Cu  0.85386708  0.24288078  0.65918206     0.42000
Cu208      Cu  0.76051184  0.24343682  0.66501862     0.43900
N209        N  0.75376751  0.32610496  0.74122412    -0.32300
N210        N  0.73670888  0.29421983  0.71377765    -0.26600
C211        C  0.70293930  0.30058761  0.72348884    -0.02700
C212        C  0.69875631  0.33820725  0.75870189     0.09500
C213        C  0.73134101  0.35362357  0.76918465     0.03300
H214        H  0.68302620  0.27935558  0.70628333     0.11000
H215        H  0.73828257  0.38258782  0.79522719     0.10000
N216        N  0.79008543  0.19570202  0.61996174    -0.33800
N217        N  0.82394416  0.19530306  0.61780887    -0.26000
C218        C  0.83487621  0.16003488  0.58486680    -0.01200
C219        C  0.80652141  0.13746437  0.56563919     0.07400
C220        C  0.77859653  0.16076985  0.58849586     0.05500
H221        H  0.86143498  0.15168788  0.57552623     0.10600
H222        H  0.75189766  0.15310260  0.58262213     0.09400
C223        C  0.78425522  0.95612682  0.39559221    -0.00200
C224        C  0.81679689  0.92841296  0.37379435    -0.00200
N225        N  0.72395320  0.58981871  0.06468085    -0.25000
N226        N  0.74128295  0.55787833  0.03558980    -0.32800
C227        C  0.71914204  0.53060320  0.00951547     0.03400
C228        C  0.68645480  0.54610146  0.02292194     0.09400
C229        C  0.69026591  0.58370462  0.05780985    -0.03700
H230        H  0.72639611  0.50251139  0.98175425     0.10100
H231        H  0.67021050  0.60579721  0.07580317     0.11300
Cu232      Cu  0.79428182  0.55431452  0.02975269     0.44200
Cu233      Cu  0.74718025  0.64166462  0.11019965     0.42000
Cu234      Cu  0.84053638  0.64111221  0.10435771     0.43900
N235        N  0.84728160  0.55844271  0.02815511    -0.32300
N236        N  0.86434031  0.59032869  0.05560035    -0.26600
C237        C  0.89810989  0.58396019  0.04588980    -0.02700
C238        C  0.90229270  0.54633917  0.01067849     0.09500
C239        C  0.86970797  0.53092281  0.00019582     0.03300
H240        H  0.91802338  0.60519209  0.06309541     0.11000
H241        H  0.86276648  0.50195761  0.97415514     0.10000
N242        N  0.81096248  0.68884523  0.14941663    -0.33800
N243        N  0.77710367  0.68924275  0.15157179    -0.26000
C244        C  0.76617186  0.72450935  0.18451607    -0.01200
C245        C  0.79452681  0.74708054  0.20374245     0.07800
C246        C  0.82245151  0.72377708  0.18088284     0.05500
H247        H  0.73961300  0.73285459  0.19385947     0.10600
H248        H  0.84915047  0.73144531  0.18675549     0.09400
C249        C  0.79517271  0.78630895  0.24058663    -0.16200
C250        C  0.79738125  0.81900893  0.27148843     0.07900
C251        C  0.80198675  0.85701778  0.30741329     0.09700
C252        C  0.80770708  0.88926569  0.33764677    -0.17000
C253        C  0.80587608  0.09823427  0.52879698    -0.16200
C254        C  0.80366847  0.06553304  0.49789644     0.07900
C255        C  0.79906438  0.02752308  0.46197244     0.09700
C256        C  0.79334480  0.99527451  0.43173940    -0.17000
C257        C  0.69559822  0.02943331  0.26885193    -0.16200
C258        C  0.71985168  0.01436553  0.29154811     0.07900
C259        C  0.74565578  0.99550756  0.32279824     0.09700
C260        C  0.76488369  0.97835025  0.35350421    -0.17000
C261        C  0.91708120  0.02695202  0.28022727    -0.16200
C262        C  0.89151206  0.00877321  0.29942629     0.07900
C263        C  0.86312824  0.98471220  0.32338203     0.09700
C264        C  0.84082998  0.96119132  0.34525226    -0.17000
C265        C  0.93392843  0.52690970  0.98914600    -0.16200
C266        C  0.95950124  0.50873866  0.96993827     0.07900
C267        C  0.98789401  0.48469086  0.94597797     0.09700
C268        C  0.01020329  0.46118095  0.92410911    -0.17000
C269        C  0.54333724  0.38925720  0.93172240    -0.16200
C270        C  0.54905052  0.35700825  0.96195941     0.07900
C271        C  0.55364601  0.31900191  0.99789148     0.09700
C272        C  0.55584760  0.28630670  0.02880056    -0.17000
C273        C  0.94563825  0.35511807  0.76878052    -0.16200
C274        C  0.96988803  0.37018209  0.79148291     0.07900
C275        C  0.99568337  0.38903748  0.82274618     0.09700
C276        C  0.01489979  0.40619206  0.85346717    -0.17000
C277        C  0.66712039  0.35763473  0.78023579    -0.16200
C278        C  0.64154722  0.37580348  0.79944480     0.07900
C279        C  0.61315419  0.39984956  0.82340611     0.09700
C280        C  0.59084476  0.42335839  0.84527585    -0.17000
C281        C  0.58614884  0.47834643  0.91591865    -0.16200
C282        C  0.60536575  0.49550056  0.94663919     0.07900
C283        C  0.63116141  0.51435635  0.97790151     0.09700
C284        C  0.65541123  0.52942171  0.00060279    -0.17000
C285        C  0.83616826  0.90618909  0.41588224    -0.16200
C286        C  0.85539629  0.88903207  0.44658817     0.07900
C287        C  0.88120044  0.87017485  0.47783865     0.09700
C288        C  0.90545395  0.85510828  0.50053563    -0.17000
C289        C  0.54520300  0.59823746  0.74059058    -0.16200
C290        C  0.54740379  0.56554059  0.77149774     0.07900
C291        C  0.55199844  0.52753276  0.80742809     0.09700
C292        C  0.55771115  0.49528264  0.83766397    -0.17000
C293        C  0.68397090  0.85759366  0.48916644    -0.16200
C294        C  0.70954001  0.87577043  0.46996479     0.07900
C295        C  0.73792398  0.89982923  0.44600658     0.09700
C296        C  0.76022221  0.92334890  0.42413475    -0.17000
loop_ 
_geom_bond_atom_site_label_1 
_geom_bond_atom_site_label_2 
_geom_bond_distance 
_geom_bond_site_symmetry_2 
_ccdc_geom_bond_type 
N1            N2   1.323       .  A
N1            C5   1.347       .  A
N1           Cu9   2.076       .  S
N2            C3   1.345       .  A
N2         Cu156   2.076       .  S
C3            C4   1.379       .  A
C3            H6   1.082       .  S
C4            C5   1.381       .  A
C4          C140   1.438       .  S
C5            H7   1.082       .  S
Cu8          N11   2.076       .  S
Cu8         N150   2.076   1_455  S
Cu9         N167   2.076       .  S
Cu10         N12   2.073       .  S
Cu10         N18   2.073       .  S
N11          N12   1.323       .  A
N11          C15   1.345       .  A
N12          C13   1.347       .  A
C13          C14   1.380       .  A
C13          H16   1.082       .  S
C14          C15   1.380       .  A
C14         C145   1.439       .  S
C15          H17   1.082       .  S
N18          N19   1.324       .  A
N18          C22   1.345       .  A
N19          C20   1.346       .  A
N19        Cu157   2.076   1_455  S
C20          C21   1.380       .  A
C20         H171   1.082   1_455  S
C21          C22   1.378       .  A
C21         C141   1.436       .  S
C22          H24   1.082       .  S
H23         C168   1.082       .  S
C25          C26   1.569       .  S
C25         C132   1.477       .  S
C25         C133   1.477       .  S
C25         C144   1.475       .  S
C26         C121   1.475       .  S
C26         C268   1.477       .  S
C26         C276   1.477       .  S
N27          N28   1.323       .  A
N27          C31   1.347       .  A
N27         Cu35   2.076       .  S
N28          C29   1.345       .  A
N28         Cu34   2.076       .  S
C29          C30   1.379       .  A
C29          H32   1.082       .  S
C30          C31   1.381       .  A
C30         C109   1.438       .  S
C31          H33   1.082       .  S
Cu34         N37   2.076       .  S
Cu35         N45   2.076       .  S
Cu36         N38   2.073   1_455  S
Cu36         N44   2.073       .  S
N37          N38   1.323   1_455  A
N37          C41   1.345   1_455  A
N38         C187   1.347       .  A
C39         N186   1.347       .  A
C39          C40   1.380       .  A
C39          H42   1.082       .  S
C40         C189   1.380       .  A
C40         C113   1.439       .  S
C41         C188   1.380       .  A
C41          H43   1.082       .  S
N44          N45   1.324       .  A
N44          C48   1.345       .  A
N45          C46   1.346       .  A
C46          C47   1.380       .  A
C46          H49   1.082       .  S
C47          C48   1.378       .  A
C47         C124   1.436       .  S
C48          H50   1.082       .  S
N51          N52   1.323       .  A
N51          C55   1.347       .  A
N51         Cu59   2.076       .  S
N52          C53   1.345       .  A
N52         Cu58   2.076       .  S
C53          C54   1.379       .  A
C53          H56   1.082       .  S
C54          C55   1.381       .  A
C54         C125   1.438       .  S
C55          H57   1.082       .  S
Cu58         N61   2.076       .  S
Cu59         N69   2.076       .  S
Cu60         N62   2.073       .  S
Cu60         N68   2.074       .  S
N61          N62   1.323       .  A
N61          C65   1.345       .  A
N62          C63   1.347       .  A
C63          C64   1.380       .  A
C63          H66   1.082       .  S
C64          C65   1.380       .  A
C64         C129   1.439       .  S
C65          H67   1.082       .  S
N68          N69   1.324       .  A
N68          C72   1.345       .  A
N69          C70   1.346       .  A
C70          C71   1.380       .  A
C70          H73   1.082       .  S
C71          C72   1.378       .  A
C71         C105   1.436       .  S
C72          H74   1.082       .  S
C75          C76   1.569       .  S
C75         C108   1.475       .  S
C75         C112   1.477       .  S
C75         C148   1.477       .  S
C76         C104   1.475       .  S
C76         C116   1.477       .  S
C76         C137   1.477       .  S
N77          N78   1.323       .  A
N77          C81   1.347       .  A
N77         Cu85   2.076       .  S
N78          C79   1.345       .  A
N78         Cu84   2.076       .  S
C79          C80   1.379       .  A
C79          H82   1.082   1_554  S
C80          C81   1.381       .  A
C80         C136   1.438       .  S
C81          H83   1.082       .  S
Cu84         N87   2.076       .  S
Cu85         N95   2.076       .  S
Cu86         N88   2.073       .  S
Cu86         N94   2.073       .  S
N87          N88   1.323       .  A
N87          C91   1.345       .  A
N88          C89   1.347       .  A
C89          C90   1.380       .  A
C89          H92   1.082       .  S
C90          C91   1.380       .  A
C90         C117   1.439   1_554  S
C91          H93   1.082   1_554  S
N94          N95   1.324       .  A
N94          C98   1.345       .  A
N95          C96   1.346       .  A
C96          C97   1.380       .  A
C96          H99   1.082       .  S
C97          C98   1.378       .  A
C97         C101   1.436       .  S
C98         H100   1.082       .  S
C101        C102   1.205       .  T
C102        C103   1.411       .  S
C103        C104   1.206       .  T
C105        C106   1.205       .  T
C106        C107   1.411       .  S
C107        C108   1.206   1_545  T
C109        C110   1.206       .  T
C110        C111   1.413   1_545  S
C111        C112   1.207       .  T
C113        C114   1.207       .  T
C114        C115   1.413   1_545  S
C115        C116   1.207       .  T
C117        C118   1.207       .  T
C118        C119   1.413       .  S
C119        C120   1.207       .  T
C120        C174   1.477       .  S
C121        C122   1.206       .  T
C122        C123   1.411       .  S
C123        C124   1.205   1_556  T
C125        C126   1.206       .  T
C126        C127   1.413       .  S
C127        C128   1.207       .  T
C128        C174   1.477       .  S
C129        C130   1.207       .  T
C130        C131   1.413       .  S
C131        C132   1.207       .  T
C133        C134   1.207       .  T
C134        C135   1.413       .  S
C135        C136   1.206   1_556  T
C137        C138   1.207       .  T
C138        C139   1.413       .  S
C139        C140   1.206       .  T
C141        C142   1.205       .  T
C142        C143   1.411       .  S
C143        C144   1.206       .  T
C145        C146   1.207       .  T
C146        C147   1.413       .  S
C147        C148   1.207       .  T
N149        N150   1.323       .  A
N149        C153   1.347       .  A
N149       Cu157   2.076       .  S
N150        C151   1.345       .  A
C151        C152   1.379       .  A
C151        H154   1.082       .  S
C152        C153   1.381       .  A
C152        C288   1.438       .  S
C153        H155   1.082       .  S
Cu156       N159   2.076       .  S
Cu158       N160   2.073       .  S
Cu158       N166   2.073       .  S
N159        N160   1.323       .  A
N159        C163   1.345       .  A
N160        C161   1.347       .  A
C161        C162   1.380       .  A
C161        H164   1.082       .  S
C162        C163   1.380       .  A
C162        C293   1.439       .  S
C163        H165   1.082       .  S
N166        N167   1.324       .  A
N166        C170   1.345       .  A
N167        C168   1.346       .  A
C168        C169   1.380       .  A
C169        C170   1.378       .  A
C169        C289   1.436       .  S
C170        H172   1.082       .  S
C173        C174   1.569       .  S
C173        C280   1.477       .  S
C173        C281   1.477       .  S
C173        C292   1.475       .  S
C174        C269   1.475       .  S
N175        N176   1.323       .  A
N175        C179   1.347       .  A
N175       Cu183   2.076       .  S
N176        C177   1.345       .  A
N176       Cu182   2.076       .  S
C177        C178   1.379       .  A
C177        H180   1.082       .  S
C178        C179   1.381       .  A
C178        C257   1.438       .  S
C179        H181   1.082       .  S
Cu182       N185   2.076       .  S
Cu183       N193   2.076       .  S
Cu184       N186   2.073       .  S
Cu184       N192   2.073       .  S
N185        N186   1.323       .  A
N185        C189   1.345       .  A
C187        C188   1.380       .  A
C187        H190   1.082       .  S
C188        C261   1.439       .  S
C189        H191   1.082       .  S
N192        N193   1.324       .  A
N192        C196   1.345       .  A
N193        C194   1.346       .  A
C194        C195   1.380       .  A
C194        H197   1.082       .  S
C195        C196   1.378       .  A
C195        C272   1.436       .  S
C196        H198   1.082       .  S
N199        N200   1.323       .  A
N199        C203   1.347       .  A
N199       Cu207   2.076       .  S
N200        C201   1.345       .  A
N200       Cu206   2.076       .  S
C201        C202   1.379       .  A
C201        H204   1.082       .  S
C202        C203   1.381       .  A
C202        C273   1.438       .  S
C203        H205   1.082       .  S
Cu206       N209   2.076       .  S
Cu207       N217   2.076       .  S
Cu208       N210   2.073       .  S
Cu208       N216   2.073       .  S
N209        N210   1.323       .  A
N209        C213   1.345       .  A
N210        C211   1.347       .  A
C211        C212   1.380       .  A
C211        H214   1.082       .  S
C212        C213   1.380       .  A
C212        C277   1.439       .  S
C213        H215   1.082       .  S
N216        N217   1.324       .  A
N216        C220   1.345       .  A
N217        C218   1.346       .  A
C218        C219   1.380       .  A
C218        H221   1.082       .  S
C219        C220   1.378       .  A
C219        C253   1.436       .  S
C220        H222   1.082       .  S
C223        C224   1.569       .  S
C223        C256   1.475       .  S
C223        C260   1.477       .  S
C223        C296   1.477       .  S
C224        C252   1.475       .  S
C224        C264   1.477       .  S
C224        C285   1.477       .  S
N225        N226   1.323       .  A
N225        C229   1.347       .  A
N225       Cu233   2.076       .  S
N226        C227   1.345       .  A
N226       Cu232   2.076       .  S
C227        C228   1.379       .  A
C227        H230   1.082   1_554  S
C228        C229   1.381       .  A
C228        C284   1.438       .  S
C229        H231   1.082       .  S
Cu232       N235   2.076       .  S
Cu233       N243   2.076       .  S
Cu234       N236   2.073       .  S
Cu234       N242   2.074       .  S
N235        N236   1.323       .  A
N235        C239   1.345       .  A
N236        C237   1.347       .  A
C237        C238   1.380       .  A
C237        H240   1.082       .  S
C238        C239   1.380       .  A
C238        C265   1.439   1_554  S
C239        H241   1.082   1_554  S
N242        N243   1.324       .  A
N242        C246   1.345       .  A
N243        C244   1.346       .  A
C244        C245   1.380       .  A
C244        H247   1.082       .  S
C245        C246   1.378       .  A
C245        C249   1.436       .  S
C246        H248   1.082       .  S
C249        C250   1.205       .  T
C250        C251   1.411       .  S
C251        C252   1.206       .  T
C253        C254   1.205       .  T
C254        C255   1.411       .  S
C255        C256   1.206   1_545  T
C257        C258   1.206       .  T
C258        C259   1.413   1_545  S
C259        C260   1.207       .  T
C261        C262   1.207       .  T
C262        C263   1.413   1_545  S
C263        C264   1.207       .  T
C265        C266   1.207       .  T
C266        C267   1.413       .  S
C267        C268   1.207   1_655  T
C269        C270   1.206       .  T
C270        C271   1.411       .  S
C271        C272   1.205   1_556  T
C273        C274   1.206       .  T
C274        C275   1.413       .  S
C275        C276   1.207   1_655  T
C277        C278   1.207       .  T
C278        C279   1.413       .  S
C279        C280   1.207       .  T
C281        C282   1.207       .  T
C282        C283   1.413       .  S
C283        C284   1.206   1_556  T
C285        C286   1.207       .  T
C286        C287   1.413       .  S
C287        C288   1.206       .  T
C289        C290   1.205       .  T
C290        C291   1.411       .  S
C291        C292   1.206       .  T
C293        C294   1.207       .  T
C294        C295   1.413       .  S
C295        C296   1.207       .  T
