geometry optimzed in LAMMPS
_audit_creation_date              2020-11-30 
_audit_creation_method            'lammps2cif' 
_symmetry_space_group_name_H-M    'P1' 
_symmetry_Int_Tables_number       1 
_symmetry_cell_setting            triclinic 
loop_ 
_symmetry_equiv_pos_as_xyz 
  x,y,z 
_cell_length_a                    36.9305096 
_cell_length_b                    24.938753463865893 
_cell_length_c                    33.691380263307806 
_cell_angle_alpha                 90.61351057329763 
_cell_angle_beta                  91.2165747829472 
_cell_angle_gamma                 90.13896705985997 
loop_ 
_atom_site_label 
_atom_site_type_symbol 
_atom_site_fract_x 
_atom_site_fract_y 
_atom_site_fract_z 
_atom_site_charge 
C1          C  0.38056527  0.54518154  0.98245739     0.80900
N2          N  0.41740463  0.54497245  0.98112795    -0.77400
C3          C  0.43607569  0.49869533  0.98737661     0.83400
N4          N  0.41768692  0.45295068  0.99534977    -0.77300
C5          C  0.38107956  0.45313035  0.99765483     0.83500
N6          N  0.36256910  0.49924820  0.99103261    -0.79000
C7          C  0.53223470  0.54042780  0.97752553     0.80900
N8          N  0.54964966  0.49361918  0.98562624    -0.77400
C9          C  0.53036751  0.44868526  0.99377052     0.80600
N10         N  0.49365487  0.45068770  0.99349489    -0.77300
C11         C  0.47598807  0.49739046  0.98614177     0.83500
N12         N  0.49541818  0.54234052  0.97840018    -0.79000
N13         N  0.16150741  0.91996528  0.55863414    -0.26600
N14         N  0.14523431  0.89353703  0.52902963    -0.34500
C15         C  0.14484541  0.92422720  0.49647974     0.01700
C16         C  0.16113578  0.97255118  0.50625228     0.07800
C17         C  0.17115903  0.96880951  0.54589774    -0.05300
H18         H  0.13221615  0.91304332  0.46831474     0.08400
H19         H  0.18442146  0.99930262  0.56413157     0.09600
Cu20       Cu  0.12161221  0.81889728  0.53463179     0.44200
Cu21       Cu  0.16968801  0.88808381  0.61480274     0.42000
Cu22       Cu  0.13937773  0.74978410  0.62572184     0.43900
N23         N  0.09962556  0.74485262  0.54705428    -0.34000
N24         N  0.10722773  0.71834883  0.57993380    -0.28200
C25         C  0.08996933  0.67078806  0.57842705    -0.04300
C26         C  0.07025857  0.66776453  0.54306407     0.07900
C27         C  0.07675703  0.71546982  0.52406845     0.01700
H28         H  0.09117194  0.64113029  0.60162453     0.09300
H29         H  0.06627546  0.72749172  0.49530116     0.08400
N30         N  0.16650078  0.79351483  0.66983333    -0.35400
N31         N  0.17689186  0.84402082  0.66632533    -0.27600
C32         C  0.19252446  0.86054823  0.70079955    -0.02800
C33         C  0.19204110  0.81831924  0.72707019     0.05800
C34         C  0.17543753  0.77649788  0.70645580     0.03900
H35         H  0.20356533  0.90023768  0.70620641     0.09000
H36         H  0.16978265  0.73678911  0.71738590     0.07800
N37         N  0.16494929  0.07290173  0.42900541    -0.26600
N38         N  0.15406964  0.10226412  0.45943801    -0.34500
C39         C  0.15279599  0.07146004  0.49185425     0.01700
C40         C  0.16269397  0.02011077  0.48120458     0.07800
C41         C  0.16997053  0.02215111  0.44115496    -0.05300
H42         H  0.14374116  0.08495307  0.52060393     0.08400
H43         H  0.17842994  0.98929694  0.42230516     0.09600
Cu44       Cu  0.13806261  0.18150465  0.45580237     0.44200
Cu45       Cu  0.17316689  0.10340392  0.37260642     0.42000
Cu46       Cu  0.15715765  0.24699331  0.36513622     0.43900
N47         N  0.12116191  0.25884643  0.44399089    -0.34000
N48         N  0.12935235  0.28378234  0.41095101    -0.28200
C49         C  0.11586909  0.33381938  0.41231321    -0.04300
C50         C  0.09773899  0.34022340  0.44753361     0.07900
C51         C  0.10157149  0.29187554  0.46694413     0.01700
H52         H  0.11849154  0.36306415  0.38905098     0.09300
H53         H  0.09151484  0.28178599  0.49586025     0.08400
N54         N  0.17998893  0.20054719  0.32063775    -0.35400
N55         N  0.18515779  0.14815915  0.32271308    -0.27600
C56         C  0.19991256  0.13086327  0.28864506    -0.02800
C57         C  0.20437055  0.17455550  0.26416238     0.05800
C58         C  0.19146605  0.21794752  0.28542452     0.03900
H59         H  0.20732308  0.08971853  0.28244318     0.09000
H60         H  0.19034897  0.25924396  0.27598477     0.07800
N61         N  0.26882662  0.07625812  0.06068955    -0.26600
N62         N  0.27856937  0.10540893  0.03010726    -0.34500
C63         C  0.28025869  0.07365327  0.99765542     0.01700
C64         C  0.27172690  0.02195653  0.00851302     0.07800
C65         C  0.26478835  0.02493618  0.04865221    -0.05300
H66         H  0.28749108  0.08714826  0.96845148     0.08400
H67         H  0.25634086  0.99251534  0.06745725     0.09600
Cu68       Cu  0.28938074  0.18688379  0.03381370     0.44200
Cu69       Cu  0.25868610  0.10812199  0.11668396     0.42000
Cu70       Cu  0.26093636  0.25366787  0.12315685     0.43900
N71         N  0.29779423  0.26782459  0.04507488    -0.34000
N72         N  0.28631393  0.29282239  0.07722061    -0.28200
C73         C  0.29562500  0.34494750  0.07545913    -0.04300
C74         C  0.31435945  0.35281628  0.04089959     0.07900
C75         C  0.31525350  0.30307934  0.02233450     0.01700
H76         H  0.29025423  0.37451846  0.09830487     0.09300
H77         H  0.32763266  0.29316622  0.99439161     0.08400
N78         N  0.24218972  0.20467572  0.16785292    -0.35400
N79         N  0.24209995  0.15165388  0.16608818    -0.27600
C80         C  0.22884501  0.13251713  0.20012131    -0.02800
C81         C  0.22005437  0.17561074  0.22429168     0.05800
C82         C  0.22885958  0.22063293  0.20286321     0.03900
H83         H  0.22543068  0.09041247  0.20652919     0.09000
H84         H  0.22599818  0.26206220  0.21208608     0.07800
N85         N  0.26116554  0.91950421  0.93118729    -0.26600
N86         N  0.27088699  0.88983962  0.96190557    -0.34500
C87         C  0.27587504  0.92169441  0.99399577     0.01700
C88         C  0.26964530  0.97401601  0.98282480     0.07800
C89         C  0.26049228  0.97134161  0.94279451    -0.05300
H90         H  0.28407343  0.90783252  0.02313898     0.08400
H91         H  0.25299919  0.00439289  0.92378889     0.09600
Cu92       Cu  0.27841350  0.80768147  0.95885568     0.44200
Cu93       Cu  0.24727504  0.88700557  0.87578303     0.42000
Cu94       Cu  0.24160864  0.74007666  0.87315998     0.43900
N95         N  0.28703631  0.72705259  0.94733269    -0.34000
N96         N  0.27213470  0.70148768  0.91654144    -0.28200
C97         C  0.28298935  0.65003026  0.91688786    -0.04300
C98         C  0.30642022  0.64327115  0.94898806     0.07900
C99         C  0.30838998  0.69290008  0.96769224     0.01700
H100        H  0.27576326  0.62041317  0.89437084     0.09300
H101        H  0.32431312  0.70353811  0.99393576     0.08400
N102        N  0.22509132  0.78928177  0.82699274    -0.35400
N103        N  0.22829553  0.84216270  0.82719058    -0.27600
C104        C  0.21698992  0.86079606  0.79168142    -0.02800
C105        C  0.20600069  0.81760213  0.76825754     0.05800
C106        C  0.21143315  0.77299637  0.79157915     0.03900
H107        H  0.21663090  0.90267287  0.78364812     0.09000
H108        H  0.20659737  0.73156874  0.78318530     0.07800
C109        C  0.03104733  0.43843018  0.49422786     0.80900
N110        N  0.05069092  0.48039060  0.50915767    -0.77400
C111        C  0.03422397  0.52738329  0.51828893     0.83400
N112        N  0.99790462  0.53257239  0.51214372    -0.77300
C113        C  0.97797817  0.49065714  0.49756074     0.83500
N114        N  0.99467269  0.44352907  0.48877323    -0.79000
C115        C  0.88483413  0.46363193  0.45976043     0.80900
N116        N  0.92024431  0.45703784  0.47022631    -0.77400
C117        C  0.93895441  0.49709898  0.48907887     0.83400
N118        N  0.92166439  0.54350608  0.49863130    -0.77300
C119        C  0.88615515  0.55021838  0.48820099     0.83500
N120        N  0.86809198  0.51058323  0.46818596    -0.79000
N121        N  0.64171012  0.06877105  0.06176391    -0.26600
N122        N  0.63236027  0.09770143  0.03050838    -0.34500
C123        C  0.63186123  0.06583668  0.99798381     0.01700
C124        C  0.64069785  0.01434569  0.00948080     0.07800
C125        C  0.64660655  0.01756293  0.05009292    -0.05300
H126        H  0.62528705  0.07910053  0.96823080     0.08400
H127        H  0.65515916  0.98549458  0.06950867     0.09600
Cu128      Cu  0.62061312  0.17922192  0.03351374     0.44200
Cu129      Cu  0.65098963  0.10091940  0.11818994     0.42000
Cu130      Cu  0.64870797  0.24618283  0.12461513     0.43900
N131        N  0.61139367  0.26020973  0.04481078    -0.34000
N132        N  0.62269901  0.28503313  0.07769397    -0.28200
C133        C  0.61336195  0.33710405  0.07572119    -0.04300
C134        C  0.59480097  0.34530849  0.04023242     0.07900
C135        C  0.59399292  0.29565798  0.02135893     0.01700
H136        H  0.61888531  0.36656650  0.09888252     0.09300
H137        H  0.58194558  0.28605426  0.99260485     0.08400
N138        N  0.67022693  0.19749456  0.16898918    -0.35400
N139        N  0.67014802  0.14448163  0.16717136    -0.27600
C140        C  0.68601387  0.12524874  0.20043539    -0.02800
C141        C  0.69680492  0.16824138  0.22416638     0.05800
C142        C  0.68637717  0.21337034  0.20331442     0.03900
H143        H  0.69023221  0.08315309  0.20636729     0.09000
H144        H  0.69032524  0.25476615  0.21233186     0.07800
N145        N  0.65485048  0.91326765  0.93242476    -0.26600
N146        N  0.64333991  0.88291763  0.96156443    -0.34500
C147        C  0.63705401  0.91404194  0.99354646     0.01700
C148        C  0.64431905  0.96662072  0.98383675     0.07800
C149        C  0.65545458  0.96476514  0.94488162    -0.05300
H150        H  0.62708416  0.89959789  0.02145281     0.08400
H151        H  0.66396880  0.99823609  0.92713571     0.09600
Cu152      Cu  0.63490936  0.80100745  0.95579540     0.44200
Cu153      Cu  0.67048835  0.88252593  0.87761066     0.42000
Cu154      Cu  0.66933590  0.73657787  0.86782418     0.43900
N155        N  0.62523884  0.72122521  0.94128697    -0.34000
N156        N  0.63870177  0.69682089  0.90985643    -0.28200
C157        C  0.62725242  0.64544362  0.90910738    -0.04300
C158        C  0.60502346  0.63761650  0.94114553     0.07900
C159        C  0.60439657  0.68651249  0.96089850     0.01700
H160        H  0.63353127  0.61648856  0.88613736     0.09300
H161        H  0.58982952  0.69626897  0.98753058     0.08400
N162        N  0.69078525  0.78796947  0.82571490    -0.35400
N163        N  0.69005979  0.84094471  0.82851330    -0.27600
C164        C  0.70451800  0.86181555  0.79563052    -0.02800
C165        C  0.71519408  0.82002151  0.77118574     0.05800
C166        C  0.70613550  0.77386645  0.79126248     0.03900
H167        H  0.70748318  0.90425675  0.79019971     0.09000
H168        H  0.70983970  0.73293415  0.78123802     0.07800
N169        N  0.76276743  0.91976613  0.56195446    -0.26600
N170        N  0.77093520  0.88809491  0.53165345    -0.34500
C171        C  0.77171720  0.91716712  0.49830151     0.01700
C172        C  0.76425774  0.96981079  0.50797004     0.07800
C173        C  0.75892402  0.97023719  0.54856628    -0.05300
H174        H  0.77889862  0.90151539  0.46945227     0.08400
H175        H  0.75267758  0.00466043  0.56698045     0.09600
Cu176      Cu  0.78518288  0.80810323  0.53635982     0.44200
Cu177      Cu  0.75711186  0.89271829  0.62019481     0.42000
Cu178      Cu  0.78886704  0.75693391  0.63482664     0.43900
N179        N  0.81107405  0.73707471  0.55065290    -0.34000
N180        N  0.81360649  0.71918828  0.58737252    -0.28200
C181        C  0.83409481  0.67464536  0.58776021    -0.04300
C182        C  0.84461405  0.66366612  0.54937490     0.07900
C183        C  0.82949072  0.70406907  0.52654805     0.01700
H184        H  0.84071454  0.65178571  0.61403347     0.09300
H185        H  0.83248890  0.71000405  0.49502773     0.08400
N186        N  0.76085116  0.80017208  0.67725688    -0.35400
N187        N  0.74976929  0.85019318  0.67274935    -0.27600
C188        C  0.73247023  0.86573593  0.70584472    -0.02800
C189        C  0.73240056  0.82316976  0.73206127     0.05800
C190        C  0.75057090  0.78240841  0.71284845     0.03900
H191        H  0.71999009  0.90452617  0.71004301     0.09000
H192        H  0.75586049  0.74254166  0.72385625     0.07800
N193        N  0.76397748  0.06604519  0.42722051    -0.26600
N194        N  0.77783826  0.09555546  0.45667057    -0.34500
C195        C  0.77885081  0.06650287  0.49007871     0.01700
C196        C  0.76556014  0.01591891  0.48115764     0.07800
C197        C  0.75659326  0.01679709  0.44102499    -0.05300
H198        H  0.78967875  0.08060780  0.51841109     0.08400
H199        H  0.74514339  0.98425878  0.42331042     0.09600
Cu200      Cu  0.79718907  0.17260702  0.44970690     0.44200
Cu201      Cu  0.75460979  0.09567404  0.37015446     0.42000
Cu202      Cu  0.77687966  0.23777909  0.35774127     0.43900
N203        N  0.81793137  0.24669825  0.43522198    -0.34000
N204        N  0.80975717  0.27173288  0.40186122    -0.28200
C205        C  0.82700378  0.31935501  0.40186785    -0.04300
C206        C  0.84728472  0.32385873  0.43679700     0.07900
C207        C  0.84106719  0.27707466  0.45705501     0.01700
H208        H  0.82543337  0.34793194  0.37796061     0.09300
H209        H  0.85216161  0.26617368  0.48581690     0.08400
N210        N  0.74776178  0.19197846  0.31640885    -0.35400
N211        N  0.74047489  0.14028312  0.32003141    -0.27600
C212        C  0.72157916  0.12349322  0.28752823    -0.02800
C213        C  0.71654018  0.16681976  0.26261986     0.05800
C214        C  0.73348522  0.20944323  0.28188882     0.03900
H215        H  0.71157647  0.08306874  0.28281560     0.09000
H216        H  0.73543180  0.25025326  0.27157437     0.07800
C217        C  0.86388787  0.41940161  0.44122341    -0.15700
C218        C  0.87076622  0.36827685  0.45064901    -0.30900
H219        H  0.84028642  0.42910592  0.42291117     0.13300
H220        H  0.89223900  0.35916815  0.47206485     0.13900
C221        C  0.86644717  0.59921282  0.49930099    -0.15700
C222        C  0.86784772  0.61881772  0.53655250    -0.30900
H223        H  0.84713923  0.61548562  0.47787717     0.13300
H224        H  0.88447268  0.59891036  0.55892648     0.13900
C225        C  0.07971642  0.38945492  0.46147052    -0.15700
C226        C  0.04923532  0.38830554  0.48250444    -0.30900
H227        H  0.09052314  0.42771724  0.45202130     0.13300
H228        H  0.03610417  0.35028870  0.48845156     0.13900
C229        C  0.05602131  0.57213220  0.53478875    -0.15700
C230        C  0.04724255  0.62342378  0.52807071    -0.30900
H231        H  0.08104226  0.56272599  0.55075233     0.13300
H232        H  0.02417020  0.63296103  0.50890636     0.13900
C233        C  0.55287604  0.58951454  0.96859099    -0.15700
C234        C  0.58519798  0.58803967  0.95091368    -0.30900
H235        H  0.54023922  0.62793217  0.97472149     0.13300
H236        H  0.59639601  0.54986660  0.94143219     0.13900
C237        C  0.54865260  0.39781202  0.00363699    -0.15700
C238        C  0.57878487  0.39641117  0.02664712    -0.30900
H239        H  0.53507215  0.36059092  0.99517989     0.13300
H240        H  0.59026266  0.43359558  0.03845594     0.13900
C241        C  0.36028302  0.59501988  0.97441832    -0.15700
C242        C  0.32635973  0.59390610  0.95906753    -0.30900
H243        H  0.37412787  0.63315417  0.97897695     0.13300
H244        H  0.31378256  0.55575720  0.95105333     0.13900
C245        C  0.33137815  0.40323341  0.02823869    -0.15700
C246        C  0.36203070  0.40319002  0.00749747    -0.30900
H247        H  0.32013848  0.44089011  0.03875022     0.13300
H248        H  0.37508505  0.36541616  0.00032846     0.13900
loop_ 
_geom_bond_atom_site_label_1 
_geom_bond_atom_site_label_2 
_geom_bond_distance 
_geom_bond_site_symmetry_2 
_ccdc_geom_bond_type 
C1            N2   1.362       .  A
C1            N6   1.360       .  A
C1          C241   1.477       .  S
N2            C3   1.362       .  A
C3            N4   1.358       .  A
C3           C11   1.476       .  S
N4            C5   1.356       .  A
C5            N6   1.357       .  A
C5          C246   1.473   1_556  S
C7            N8   1.362       .  A
C7           N12   1.362       .  A
C7          C233   1.478       .  S
N8            C9   1.360       .  A
C9           N10   1.357       .  A
C9          C237   1.476   1_556  S
N10          C11   1.359       .  A
C11          N12   1.360       .  A
N13          C17   1.346       .  A
N13          N14   1.322       .  A
N13         Cu21   2.077       .  S
N14          C15   1.344       .  A
N14         Cu20   2.066       .  S
C15          C16   1.379       .  A
C15          H18   1.082       .  S
C16          C40   1.465   1_565  S
C16          C17   1.383       .  A
C17          H19   1.082       .  S
Cu20         N23   2.066       .  S
Cu21         N31   2.077       .  S
Cu22         N24   2.073       .  S
Cu22         N30   2.073       .  S
N23          C27   1.344       .  A
N23          N24   1.321       .  A
N24          C25   1.345       .  A
C25          C26   1.384       .  A
C25          H28   1.082       .  S
C26         C230   1.472       .  S
C26          C27   1.380       .  A
C27          H29   1.082       .  S
N30          C34   1.344       .  A
N30          N31   1.323       .  A
N31          C32   1.346       .  A
C32          C33   1.383       .  A
C32          H35   1.082       .  S
C33         C105   1.470       .  S
C33          C34   1.382       .  A
C34          H36   1.082       .  S
N37          C41   1.346       .  A
N37          N38   1.324       .  A
N37         Cu45   2.082       .  S
N38          C39   1.344       .  A
N38         Cu44   2.068       .  S
C39          C40   1.378       .  A
C39          H42   1.082       .  S
C40          C41   1.383       .  A
C41          H43   1.082   1_545  S
Cu44         N47   2.069       .  S
Cu45         N55   2.083       .  S
Cu46         N48   2.079       .  S
Cu46         N54   2.079       .  S
N47          C51   1.346       .  A
N47          N48   1.321       .  A
N48          C49   1.345       .  A
C49          C50   1.383       .  A
C49          H52   1.082       .  S
C50         C225   1.475       .  S
C50          C51   1.384       .  A
C51          H53   1.082       .  S
N54          C58   1.344       .  A
N54          N55   1.323       .  A
N55          C56   1.348       .  A
C56          C57   1.385       .  A
C56          H59   1.082       .  S
C57          C81   1.475       .  S
C57          C58   1.383       .  A
C58          H60   1.082       .  S
N61          C65   1.345       .  A
N61          N62   1.323       .  A
N61         Cu69   2.081       .  S
N62          C63   1.346   1_554  A
N62         Cu68   2.072       .  S
C63          C64   1.381   1_556  A
C63          H66   1.082       .  S
C64          C88   1.469   1_544  S
C64          C65   1.383       .  A
C65          H67   1.082   1_545  S
Cu68         N71   2.071       .  S
Cu69         N79   2.081       .  S
Cu70         N72   2.078       .  S
Cu70         N78   2.078       .  S
N71          C75   1.345       .  A
N71          N72   1.322       .  A
N72          C73   1.346       .  A
C73          C74   1.383       .  A
C73          H76   1.082       .  S
C74         C245   1.475       .  S
C74          C75   1.384       .  A
C75          H77   1.082   1_554  S
N78          C82   1.344       .  A
N78          N79   1.323       .  A
N79          C80   1.348       .  A
C80          C81   1.385       .  A
C80          H83   1.082       .  S
C81          C82   1.383       .  A
C82          H84   1.082       .  S
N85          C89   1.347       .  A
N85          N86   1.323       .  A
N85         Cu93   2.081       .  S
N86          C87   1.344       .  A
N86         Cu92   2.070       .  S
C87          C88   1.380       .  A
C87          H90   1.082   1_556  S
C88          C89   1.384       .  A
C89          H91   1.082   1_565  S
Cu92         N95   2.071       .  S
Cu93        N103   2.081       .  S
Cu94         N96   2.073       .  S
Cu94        N102   2.074       .  S
N95          C99   1.346       .  A
N95          N96   1.321       .  A
N96          C97   1.345       .  A
C97          C98   1.383       .  A
C97         H100   1.082       .  S
C98         C242   1.475       .  S
C98          C99   1.384       .  A
C99         H101   1.082       .  S
N102        C106   1.344       .  A
N102        N103   1.324       .  A
N103        C104   1.347       .  A
C104        C105   1.383       .  A
C104        H107   1.082       .  S
C105        C106   1.381       .  A
C106        H108   1.082       .  S
C109        N110   1.358       .  A
C109        N114   1.358   1_455  A
C109        C226   1.475       .  S
N110        C111   1.357       .  A
C111        N112   1.360   1_455  A
C111        C229   1.472       .  S
N112        C113   1.359       .  A
C113        N114   1.361       .  A
C113        C117   1.473       .  S
C115        N116   1.358       .  A
C115        N120   1.356       .  A
C115        C217   1.472       .  S
N116        C117   1.358       .  A
C117        N118   1.362       .  A
N118        C119   1.362       .  A
C119        N120   1.357       .  A
C119        C221   1.473       .  S
N121        C125   1.346       .  A
N121        N122   1.323       .  A
N121       Cu129   2.077       .  S
N122        C123   1.346   1_554  A
N122       Cu128   2.082       .  S
C123        C124   1.383   1_556  A
C123        H126   1.082       .  S
C124        C148   1.471   1_544  S
C124        C125   1.382       .  A
C125        H127   1.082   1_545  S
Cu128       N131   2.081       .  S
Cu129       N139   2.077       .  S
Cu130       N132   2.082       .  S
Cu130       N138   2.082       .  S
N131        C135   1.347       .  A
N131        N132   1.323       .  A
N132        C133   1.346       .  A
C133        C134   1.383       .  A
C133        H136   1.082       .  S
C134        C238   1.479       .  S
C134        C135   1.386       .  A
C135        H137   1.082   1_554  S
N138        C142   1.345       .  A
N138        N139   1.323       .  A
N139        C140   1.347       .  A
C140        C141   1.383       .  A
C140        H143   1.082       .  S
C141        C213   1.474       .  S
C141        C142   1.384       .  A
C142        H144   1.082       .  S
N145        C149   1.347       .  A
N145        N146   1.323       .  A
N145       Cu153   2.085       .  S
N146        C147   1.346       .  A
N146       Cu152   2.072       .  S
C147        C148   1.382       .  A
C147        H150   1.082   1_556  S
C148        C149   1.384       .  A
C149        H151   1.082       .  S
Cu152       N155   2.072       .  S
Cu153       N163   2.086       .  S
Cu154       N156   2.088       .  S
Cu154       N162   2.089       .  S
N155        C159   1.345       .  A
N155        N156   1.322       .  A
N156        C157   1.348       .  A
C157        C158   1.385       .  A
C157        H160   1.082       .  S
C158        C234   1.479       .  S
C158        C159   1.383       .  A
C159        H161   1.082       .  S
N162        C166   1.346       .  A
N162        N163   1.324       .  A
N163        C164   1.349       .  A
C164        C165   1.385       .  A
C164        H167   1.082       .  S
C165        C189   1.478       .  S
C165        C166   1.385       .  A
C166        H168   1.082       .  S
N169        C173   1.348       .  A
N169        N170   1.324       .  A
N169       Cu177   2.096       .  S
N170        C171   1.345       .  A
N170       Cu176   2.071       .  S
C171        C172   1.379       .  A
C171        H174   1.082       .  S
C172        C196   1.471   1_565  S
C172        C173   1.386       .  A
C173        H175   1.082   1_565  S
Cu176       N179   2.071       .  S
Cu177       N187   2.096       .  S
Cu178       N180   2.076       .  S
Cu178       N186   2.077       .  S
N179        C183   1.346       .  A
N179        N180   1.321       .  A
N180        C181   1.346       .  A
C181        C182   1.383       .  A
C181        H184   1.082       .  S
C182        C222   1.478       .  S
C182        C183   1.386       .  A
C183        H185   1.082       .  S
N186        C190   1.345       .  A
N186        N187   1.323       .  A
N187        C188   1.351       .  A
C188        C189   1.388       .  A
C188        H191   1.082       .  S
C189        C190   1.382       .  A
C190        H192   1.082       .  S
N193        C197   1.347       .  A
N193        N194   1.323       .  A
N193       Cu201   2.089       .  S
N194        C195   1.345       .  A
N194       Cu200   2.066       .  S
C195        C196   1.380       .  A
C195        H198   1.082       .  S
C196        C197   1.386       .  A
C197        H199   1.082   1_545  S
Cu200       N203   2.066       .  S
Cu201       N211   2.090       .  S
Cu202       N204   2.072       .  S
Cu202       N210   2.073       .  S
N203        C207   1.343       .  A
N203        N204   1.321       .  A
N204        C205   1.346       .  A
C205        C206   1.385       .  A
C205        H208   1.082       .  S
C206        C218   1.471       .  S
C206        C207   1.379       .  A
C207        H209   1.082       .  S
N210        C214   1.344       .  A
N210        N211   1.324       .  A
N211        C212   1.348       .  A
C212        C213   1.386       .  A
C212        H215   1.082       .  S
C213        C214   1.381       .  A
C214        H216   1.082       .  S
C217        C218   1.341       .  D
C217        H219   1.086       .  S
C218        H220   1.087       .  S
C221        C222   1.342       .  D
C221        H223   1.086       .  S
C222        H224   1.087       .  S
C225        C226   1.343       .  D
C225        H227   1.087       .  S
C226        H228   1.086       .  S
C229        C230   1.341       .  D
C229        H231   1.087       .  S
C230        H232   1.086       .  S
C233        C234   1.346       .  D
C233        H235   1.086       .  S
C234        H236   1.086       .  S
C237        C238   1.343       .  D
C237        H239   1.086   1_554  S
C238        H240   1.087       .  S
C241        C242   1.345       .  D
C241        H243   1.087       .  S
C242        H244   1.087       .  S
C245        C246   1.343       .  D
C245        H247   1.087       .  S
C246        H248   1.086       .  S
