geometry optimzed in LAMMPS
_audit_creation_date              2020-11-30 
_audit_creation_method            'lammps2cif' 
_symmetry_space_group_name_H-M    'P1' 
_symmetry_Int_Tables_number       1 
_symmetry_cell_setting            triclinic 
loop_ 
_symmetry_equiv_pos_as_xyz 
  x,y,z 
_cell_length_a                    35.96859547 
_cell_length_b                    35.84761125207216 
_cell_length_c                    82.8555398436608 
_cell_angle_alpha                 90.11908051516673 
_cell_angle_beta                  89.87292775753333 
_cell_angle_gamma                 120.2848873186649 
loop_ 
_atom_site_label 
_atom_site_type_symbol 
_atom_site_fract_x 
_atom_site_fract_y 
_atom_site_fract_z 
_atom_site_charge 
N1          N  0.98318659  0.57278719  0.42900635    -0.25900
N2          N  0.99218395  0.55837231  0.44223580    -0.33700
C3          C  0.98194647  0.57387710  0.45521993     0.02500
C4          C  0.96647381  0.60000698  0.44998332     0.08500
C5          C  0.96761794  0.59866276  0.43325702    -0.04600
H6          H  0.98562011  0.56670986  0.46759357     0.09200
H7          H  0.95674873  0.61413891  0.42484194     0.10400
Cu8        Cu  0.01838320  0.51860518  0.44212456     0.44200
Cu9        Cu  0.99009852  0.55299030  0.40609807     0.42000
Cu10       Cu  0.02164095  0.46909565  0.40487438     0.43900
N11         N  0.04289808  0.47752304  0.44030385    -0.33300
N12         N  0.04224149  0.45717058  0.42688879    -0.27500
C13         C  0.05827451  0.43108152  0.43011150    -0.03600
C14         C  0.06999122  0.43592840  0.44628494     0.08600
C15         C  0.06008181  0.46583353  0.45226898     0.02400
H16         H  0.06186249  0.41081153  0.42131726     0.10100
H17         H  0.06416913  0.47756943  0.46455311     0.09100
N18         N  0.00594539  0.49330021  0.38461811    -0.34700
N19         N  0.99549287  0.52386145  0.38511776    -0.26900
C20         C  0.98882899  0.53272291  0.36996829    -0.02100
C21         C  0.99531831  0.50660854  0.35946951     0.06500
C22         C  0.00611609  0.48203133  0.36908697     0.04600
H23         H  0.98007030  0.55656734  0.36684922     0.09700
H24         H  0.01395884  0.45804852  0.36510199     0.08500
N25         N  0.41580268  0.98864423  0.09322253    -0.25900
N26         N  0.43928217  0.99588539  0.10637901    -0.33700
C27         C  0.41366924  0.98615420  0.11941887     0.02500
C28         C  0.37226750  0.97284101  0.11429316     0.08500
C29         C  0.37476258  0.97490551  0.09758901    -0.04600
H30         H  0.42429142  0.98791799  0.13174944     0.09200
H31         H  0.34839114  0.96504109  0.08922400     0.10400
Cu32       Cu  0.50479370  0.01659676  0.10622457     0.44200
Cu33       Cu  0.43970364  0.99236438  0.07000322     0.42000
Cu34       Cu  0.54982880  0.01168555  0.06831617     0.43900
N35         N  0.56877424  0.03276372  0.10350311    -0.33300
N36         N  0.58481786  0.02909622  0.08962203    -0.27500
C37         C  0.62602984  0.03952878  0.09183243    -0.03600
C38         C  0.63668282  0.05091841  0.10782680     0.08600
C39         C  0.59958264  0.04631247  0.11489812     0.02400
H40         H  0.64687006  0.03931523  0.08243783     0.10100
H41         H  0.59497211  0.05139897  0.12740240     0.09100
N42         N  0.51078864  0.99948974  0.04829014    -0.34700
N43         N  0.47114975  0.99300261  0.04877944    -0.26900
C44         C  0.45588539  0.98760032  0.03360151    -0.02100
C45         C  0.48748938  0.99094573  0.02320249     0.06500
C46         C  0.52177568  0.99848039  0.03283878     0.04600
H47         H  0.42440467  0.98219402  0.03039694     0.09700
H48         H  0.55271496  0.00356827  0.02892502     0.08500
N49         N  0.01063627  0.60629398  0.24407660    -0.25900
N50         N  0.01006499  0.58883953  0.22994527    -0.33700
C51         C  0.02251366  0.61914746  0.21837634     0.02500
C52         C  0.03091877  0.65758287  0.22554232     0.08500
C53         C  0.02276494  0.64815835  0.24182226    -0.04600
H54         H  0.02457452  0.61337741  0.20570970     0.09200
H55         H  0.02625359  0.67034502  0.25136619     0.10400
Cu56       Cu  0.99092400  0.52415534  0.22696452     0.44200
Cu57       Cu  0.99747002  0.57204877  0.26568850     0.42000
Cu58       Cu  0.97164377  0.45882347  0.26246928     0.43900
N59         N  0.97011158  0.45868505  0.22611108    -0.33300
N60         N  0.96431807  0.43467877  0.23901305    -0.27500
C61         C  0.95192341  0.39407319  0.23419517    -0.03600
C62         C  0.94943632  0.39260760  0.21746789     0.08600
C63         C  0.96083982  0.43400117  0.21281530     0.02400
H64         H  0.94412602  0.36744971  0.24225681     0.10100
H65         H  0.96245542  0.44544946  0.20061073     0.09100
N66         N  0.98016893  0.49167391  0.28423807    -0.34700
N67         N  0.98918449  0.53228516  0.28537738    -0.26900
C68         C  0.99358105  0.54358838  0.30107661    -0.02100
C69         C  0.98698875  0.50854786  0.31019269     0.06500
C70         C  0.97854283  0.47620244  0.29919712     0.04600
H71         H  0.00158630  0.57521499  0.30549797     0.09700
H72         H  0.97219181  0.44394894  0.30183874     0.08500
N73         N  0.91495705  0.22303287  0.18809005    -0.25900
N74         N  0.88581456  0.23098639  0.18192295    -0.33700
C75         C  0.89084537  0.26774332  0.18838076     0.02500
C76         C  0.92454430  0.28346793  0.19931231     0.08500
C77         C  0.93892439  0.25419404  0.19885803    -0.04600
H78         H  0.87035442  0.28102719  0.18578089     0.09200
H79         H  0.96476232  0.25533875  0.20590735     0.10400
Cu80       Cu  0.83849324  0.18889709  0.16609759     0.44200
Cu81       Cu  0.91995661  0.16978478  0.18124513     0.42000
Cu82       Cu  0.84371893  0.09553979  0.15119770     0.43900
N83         N  0.79245820  0.14138737  0.15127163    -0.33300
N84         N  0.79454622  0.10814806  0.14537251    -0.27500
C85         C  0.75948830  0.08427211  0.13612900    -0.03600
C86         C  0.73411672  0.10331619  0.13643405     0.08600
C87         C  0.75591963  0.13916077  0.14620444     0.02400
H88         H  0.75242859  0.05470787  0.13007287     0.10100
H89         H  0.74594982  0.16208360  0.14941037     0.09100
N90         N  0.89495103  0.09047169  0.16057904    -0.34700
N91         N  0.92206919  0.11718936  0.17156700    -0.26900
C92         C  0.95104340  0.10516994  0.17511009    -0.02100
C93         C  0.94179394  0.06930092  0.16596191     0.06500
C94         C  0.90611686  0.06075585  0.15688585     0.04600
H95         H  0.97704449  0.12150960  0.18369993     0.09700
H96         H  0.88945005  0.03483333  0.14822933     0.08500
N97         N  0.19962319  0.93072026  0.14208888    -0.25900
N98         N  0.20808613  0.90199527  0.14842833    -0.33700
C99         C  0.24483045  0.90731829  0.14194200     0.02500
C100        C  0.25992821  0.94070395  0.13082996     0.08500
C101        C  0.23029451  0.95451925  0.13116291    -0.04600
H102        H  0.25890218  0.88766080  0.14482787     0.09200
H103        H  0.23132020  0.98045055  0.12415007     0.10400
Cu104      Cu  0.16749435  0.85549829  0.16494026     0.44200
Cu105      Cu  0.14783648  0.93741046  0.14939889     0.42000
Cu106      Cu  0.07706121  0.86359927  0.18053856     0.43900
N107        N  0.12079174  0.81039773  0.18037309    -0.33300
N108        N  0.08858505  0.81375006  0.18649829    -0.27500
C109        C  0.06479030  0.77936593  0.19608883    -0.03600
C110        C  0.08271921  0.75300683  0.19580785     0.08600
C111        C  0.11788412  0.77354881  0.18564928     0.02400
H112        H  0.03591281  0.77336830  0.20236759     0.10100
H113        H  0.13984523  0.76251064  0.18233156     0.09100
N114        N  0.07187338  0.91502082  0.17137721    -0.34700
N115        N  0.09739722  0.94148582  0.15998942    -0.26900
C116        C  0.08542966  0.97070206  0.15668409    -0.02100
C117        C  0.05081166  0.96220965  0.16640503     0.06500
C118        C  0.04297934  0.92677372  0.17556485     0.04600
H119        H  0.10076691  0.99617647  0.14779142     0.09700
H120        H  0.01794719  0.91051221  0.18454924     0.08500
N121        N  0.43281598  0.01478313  0.90445340    -0.25900
N122        N  0.44548129  0.00474721  0.89095389    -0.33700
C123        C  0.42961456  0.01564838  0.87829804     0.02500
C124        C  0.40521746  0.03263941  0.88407736     0.08500
C125        C  0.40786587  0.03164250  0.90073331    -0.04600
H126        H  0.43506457  0.01108918  0.86579251     0.09200
H127        H  0.39358998  0.04311326  0.90947560     0.10400
Cu128      Cu  0.48286058  0.97567976  0.89013570     0.44200
Cu129      Cu  0.45157131  0.00663599  0.92723445     0.42000
Cu130      Cu  0.52096807  0.95995573  0.92827474     0.43900
N131        N  0.52049644  0.94714215  0.89231923    -0.33300
N132        N  0.53570157  0.94265284  0.90624143    -0.27500
C133        C  0.55987852  0.92430561  0.90354940    -0.03600
C134        C  0.55945135  0.91652516  0.88713932     0.08600
C135        C  0.53399966  0.93116601  0.88043289     0.02400
H136        H  0.57578514  0.91647052  0.91287913     0.10100
H137        H  0.52622897  0.93067012  0.86779515     0.09100
N138        N  0.49970409  0.97739160  0.94873814    -0.34700
N139        N  0.47472395  0.99465348  0.94834744    -0.26900
C140        C  0.46641474  0.00153852  0.96356568    -0.02100
C141        C  0.48698564  0.98777486  0.97394058     0.06500
C142        C  0.50780007  0.97268028  0.96422738     0.04600
H143        H  0.44650289  0.01509023  0.96680350     0.09700
H144        H  0.52706870  0.95898428  0.96809220     0.08500
N145        N  0.68992480  0.86929533  0.86462434    -0.25900
N146        N  0.65428566  0.84314665  0.85663030    -0.33700
C147        C  0.62193659  0.84804774  0.86236058     0.02500
C148        C  0.63800919  0.87854503  0.87462166     0.08500
C149        C  0.68105716  0.89098658  0.87581185    -0.04600
H150        H  0.58936945  0.83103249  0.85780257     0.09200
H151        H  0.70466469  0.91553365  0.88369356     0.10400
Cu152      Cu  0.65153556  0.80304696  0.83789116     0.44200
Cu153      Cu  0.75031125  0.87937836  0.85846122     0.42000
Cu154      Cu  0.75481581  0.82238271  0.82325960     0.43900
N155        N  0.65846871  0.76694879  0.81965753    -0.33300
N156        N  0.69626824  0.77478498  0.81413672    -0.27500
C157        C  0.69005642  0.74624204  0.80240167    -0.03600
C158        C  0.64632165  0.71868393  0.80058531     0.08600
C159        C  0.62716208  0.73273664  0.81170409     0.02400
H160        H  0.71556261  0.74490635  0.79598046     0.10100
H161        H  0.59306731  0.71917730  0.81388004     0.09100
N162        N  0.80899121  0.87194792  0.83427473    -0.34700
N163        N  0.80742477  0.89248868  0.84731023    -0.26900
C164        C  0.84760093  0.92389215  0.85105807    -0.02100
C165        C  0.87552407  0.92290081  0.83984068     0.06500
C166        C  0.85017436  0.88966781  0.82939130     0.04600
H167        H  0.85570832  0.94628797  0.86101582     0.09700
H168        H  0.86071607  0.87950591  0.81887043     0.08500
N169        N  0.27216363  0.07247309  0.85844179    -0.25900
N170        N  0.30770916  0.09727247  0.85015546    -0.33700
C171        C  0.33997135  0.09282266  0.85616660     0.02500
C172        C  0.32397831  0.06401344  0.86892917     0.08500
C173        C  0.28099915  0.05196319  0.87008671    -0.04600
H174        H  0.37277906  0.11010992  0.85181225     0.09200
H175        H  0.25774527  0.02957806  0.87864265     0.10400
Cu176      Cu  0.31173896  0.13895936  0.83201396     0.44200
Cu177      Cu  0.21311255  0.06700140  0.85323829     0.42000
Cu178      Cu  0.21536055  0.14557391  0.82554112     0.43900
N179        N  0.31016529  0.18619540  0.81810811    -0.33300
N180        N  0.27570285  0.19016242  0.81664662    -0.27500
C181        C  0.28655538  0.22682899  0.80859850    -0.03600
C182        C  0.32962038  0.24636290  0.80455045     0.08600
C183        C  0.34364675  0.21977158  0.81073190     0.02400
H184        H  0.26472234  0.23841523  0.80592054     0.10100
H185        H  0.37618339  0.22545237  0.81056732     0.09100
N186        N  0.15879185  0.09411789  0.83450409    -0.34700
N187        N  0.15802418  0.06528148  0.84464810    -0.26900
C188        C  0.11681407  0.03523047  0.84770409    -0.02100
C189        C  0.09060916  0.04578198  0.83908857     0.06500
C190        C  0.11807187  0.08318439  0.83083510     0.04600
H191        H  0.10674694  0.00745347  0.85544772     0.09700
H192        H  0.10922289  0.10081480  0.82260236     0.08500
N193        N  0.55021313  0.56233469  0.76178348    -0.25900
N194        N  0.52644065  0.54041032  0.77433371    -0.33700
C195        C  0.53584174  0.56744204  0.78690914     0.02500
C196        C  0.56724672  0.60824036  0.78217184     0.08500
C197        C  0.57571414  0.60394643  0.76614945    -0.04600
H198        H  0.52134695  0.55788436  0.79875355     0.09200
H199        H  0.59825303  0.62912593  0.75820410     0.10400
Cu200      Cu  0.48368491  0.47435584  0.77452600     0.44200
Cu201      Cu  0.54623311  0.53484304  0.73919111     0.42000
Cu202      Cu  0.48370811  0.41803724  0.73878566     0.43900
N203        N  0.45024137  0.40756606  0.77273046    -0.33300
N204        N  0.45265383  0.38694031  0.75989324    -0.27500
C205        C  0.43068452  0.34421608  0.76277921    -0.03600
C206        C  0.41289797  0.33761018  0.77802423     0.08600
C207        C  0.42587846  0.37845141  0.78402846     0.02400
H208        H  0.42740195  0.31968807  0.75428861     0.10100
H209        H  0.41929554  0.38647069  0.79587874     0.09100
N210        N  0.51012945  0.45512766  0.71824424    -0.34700
N211        N  0.53290231  0.49785291  0.71827378    -0.26900
C212        C  0.54293252  0.51180073  0.70292955    -0.02100
C213        C  0.52561409  0.47612620  0.69289125     0.06500
C214        C  0.50499838  0.44078719  0.70293532     0.04600
H215        H  0.56046702  0.54542437  0.69933579     0.09700
H216        H  0.48654399  0.40717048  0.69938230     0.08500
N217        N  0.59596546  0.55052191  0.57428357    -0.25900
N218        N  0.57120671  0.54498991  0.56166349    -0.33700
C219        C  0.59599571  0.56999048  0.54946660     0.02500
C220        C  0.63838270  0.59157774  0.55453973     0.08500
C221        C  0.63723713  0.57842134  0.57031999    -0.04600
H222        H  0.58410641  0.57177651  0.53767535     0.09200
H223        H  0.66423396  0.58923471  0.57846577     0.10400
Cu224      Cu  0.50511273  0.50181725  0.56131719     0.44200
Cu225      Cu  0.57221369  0.52223642  0.59668165     0.42000
Cu226      Cu  0.45900546  0.44263873  0.59846071     0.43900
N227        N  0.44146072  0.45211350  0.56358267    -0.33300
N228        N  0.42511830  0.42990660  0.57702535    -0.27500
C229        C  0.38395880  0.39908508  0.57439566    -0.03600
C230        C  0.37371422  0.40220592  0.55858693     0.08600
C231        C  0.41096681  0.43616460  0.55204783     0.02400
H232        H  0.36297514  0.37634168  0.58336659     0.10100
H233        H  0.41589019  0.44797164  0.53981389     0.09100
N234        N  0.49857585  0.46356520  0.61857574    -0.34700
N235        N  0.54002655  0.49292676  0.61797550    -0.26900
C236        C  0.55598137  0.50102811  0.63307784    -0.02100
C237        C  0.52299517  0.47543633  0.64357583     0.06500
C238        C  0.48706531  0.45212099  0.63404627     0.04600
H239        H  0.58889766  0.52449873  0.63619169     0.09700
H240        H  0.45473599  0.42933960  0.63805955     0.08500
N241        N  0.10071287  0.30001445  0.47598523    -0.25900
N242        N  0.13456239  0.33732596  0.48014332    -0.33700
C243        C  0.13284271  0.36960751  0.47254534     0.02500
C244        C  0.09625291  0.35171161  0.46299317     0.08500
C245        C  0.07683077  0.30755001  0.46540861    -0.04600
H246        H  0.15658081  0.40345934  0.47382394     0.09200
H247        H  0.04701494  0.28282568  0.46015495     0.10400
Cu248      Cu  0.18127399  0.34220715  0.49604682     0.44200
Cu249      Cu  0.08807873  0.24096076  0.48570535     0.42000
Cu250      Cu  0.16213305  0.24472420  0.51676782     0.43900
N251        N  0.22294061  0.34047157  0.51288527    -0.33300
N252        N  0.21567625  0.30548163  0.52085483    -0.27500
C253        C  0.24882626  0.31600202  0.53097874    -0.03600
C254        C  0.27837835  0.35965556  0.52914328     0.08600
C255        C  0.26095459  0.37395344  0.51756336     0.02400
H256        H  0.25159340  0.29334031  0.53875308     0.10100
H257        H  0.27489111  0.40640752  0.51287077     0.09100
N258        N  0.10815433  0.18800279  0.50897630    -0.34700
N259        N  0.08154911  0.18663168  0.49765127    -0.26900
C260        C  0.05077716  0.14517144  0.49522245    -0.02100
C261        C  0.05839936  0.11941227  0.50547192     0.04400
C262        C  0.09496521  0.14746158  0.51401111     0.04600
H263        H  0.02494151  0.13456934  0.48654242     0.09700
H264        H  0.11107792  0.13907224  0.52309906     0.08500
N265        N  0.92076289  0.72758506  0.47816153    -0.25900
N266        N  0.89744968  0.69090000  0.48602842    -0.33700
C267        C  0.90421466  0.66041725  0.47953834     0.02500
C268        C  0.93308847  0.67874281  0.46688855     0.08500
C269        C  0.94274163  0.72130409  0.46630307    -0.04600
H270        H  0.88845621  0.62721091  0.48351077     0.09200
H271        H  0.96441804  0.74594146  0.45799191     0.10400
Cu272      Cu  0.85530345  0.68313659  0.50454689     0.44200
Cu273      Cu  0.92204152  0.78431061  0.48460148     0.42000
Cu274      Cu  0.84302064  0.77444207  0.51480406     0.43900
N275        N  0.80852158  0.67932515  0.52022127    -0.33300
N276        N  0.80189447  0.71178582  0.52320167    -0.27500
C277        C  0.76688723  0.69746510  0.53274005    -0.03600
C278        C  0.75137402  0.65418838  0.53605882     0.08600
C279        C  0.77871117  0.64391243  0.52804596     0.02400
H280        H  0.75426407  0.71727698  0.53722239     0.10100
H281        H  0.77645901  0.61270145  0.52758652     0.09100
N282        N  0.89339393  0.83334102  0.50635770    -0.34700
N283        N  0.92172909  0.83660261  0.49538532    -0.26900
C284        C  0.95137034  0.87855948  0.49331360    -0.02100
C285        C  0.94133272  0.90282276  0.50343749     0.06500
C286        C  0.90444691  0.87331755  0.51153629     0.04600
H287        H  0.97883831  0.89040552  0.48530417     0.09700
H288        H  0.88745377  0.88025787  0.52078350     0.08500
C289        C  0.96572658  0.94914246  0.50549420    -0.17100
C290        C  0.98715833  0.98807725  0.50653025     0.07000
C291        C  0.01255025  0.03382816  0.50692605     0.08800
C292        C  0.03381507  0.07286408  0.50659659    -0.17900
C293        C  0.33173882  0.37438688  0.55068265    -0.15000
C294        C  0.32055845  0.38631137  0.53702554    -0.30200
H295        H  0.30900492  0.34441501  0.55659918     0.14000
H296        H  0.34231862  0.41754254  0.53170449     0.14600
C297        C  0.67621490  0.62299627  0.54511885    -0.15000
C298        C  0.71426535  0.62469528  0.54618613    -0.30200
H299        H  0.67195486  0.64299277  0.53634006     0.14000
H300        H  0.71720483  0.60146568  0.55366307     0.14600
C301        C  0.52573061  0.47579761  0.67550837    -0.11900
C302        C  0.52485255  0.47542732  0.66093635    -0.13400
C303        C  0.38726444  0.29572392  0.78621593    -0.15000
C304        C  0.35543428  0.28839410  0.79648733    -0.30200
H305        H  0.39318126  0.26968630  0.78310301     0.14000
H306        H  0.34669229  0.31300374  0.79839669     0.14600
C307        C  0.62571152  0.68144210  0.78945848    -0.15000
C308        C  0.58669966  0.64719846  0.79246561    -0.30200
H309        H  0.64434784  0.68089341  0.77922220     0.14000
H310        H  0.56958878  0.64638693  0.80340263     0.14600
C311        C  0.04428403  0.02178313  0.83849418    -0.17100
C312        C  0.00546075  0.00054162  0.83831853     0.07000
C313        C  0.96006576  0.97441062  0.83852258     0.08800
C314        C  0.92144734  0.95122709  0.83901239    -0.17900
C315        C  0.34730344  0.04925302  0.87934688    -0.15000
C316        C  0.38264817  0.04917067  0.87416264    -0.30200
H317        H  0.33379734  0.03598188  0.89111842     0.14000
H318        H  0.39397939  0.05906645  0.86188803     0.14600
C319        C  0.58051949  0.89630843  0.87831280    -0.15000
C320        C  0.61559453  0.89652474  0.88398297    -0.30200
H321        H  0.56825849  0.88316477  0.86640840     0.14000
H322        H  0.62991207  0.91273609  0.89529846     0.14600
C323        C  0.02722351  0.98501599  0.16660049    -0.17100
C324        C  0.00753560  0.00419307  0.16648834     0.07000
C325        C  0.98441598  0.02665356  0.16619332     0.08800
C326        C  0.96477610  0.04587720  0.16597466    -0.17900
C327        C  0.04510343  0.69971325  0.21764960    -0.15000
C328        C  0.06723729  0.71070386  0.20369670    -0.30200
H329        H  0.03900431  0.72291488  0.22382503     0.14000
H330        H  0.07644619  0.68888991  0.19826143     0.14600
C331        C  0.93507192  0.35504421  0.20659281    -0.15000
C332        C  0.93986794  0.32119208  0.21020620    -0.30200
H333        H  0.92169011  0.35616297  0.19497157     0.14000
H334        H  0.95648908  0.32162553  0.22120776     0.14600
C335        C  0.48623408  0.98832391  0.99129647    -0.11900
C336        C  0.48611590  0.98912212  0.00585609    -0.13400
C337        C  0.33355902  0.95591689  0.12465984    -0.15000
C338        C  0.29843389  0.95757252  0.12033837    -0.30200
H339        H  0.33473324  0.94334068  0.13645351     0.14000
H340        H  0.29859365  0.97344268  0.10915755     0.14600
C341        C  0.67862407  0.06402804  0.11551569    -0.15000
C342        C  0.69174439  0.08859406  0.12886994    -0.30200
H343        H  0.70003522  0.05505593  0.10959630     0.14000
H344        H  0.67171781  0.10040447  0.13400245     0.14600
C345        C  0.98973714  0.50670345  0.32753420    -0.11900
C346        C  0.99227291  0.50605431  0.34208236    -0.13400
C347        C  0.08901016  0.41459555  0.45567780    -0.15000
C348        C  0.08021886  0.37413527  0.45256955    -0.30200
H349        H  0.10782763  0.43135843  0.46627754     0.14000
H350        H  0.05822620  0.35590217  0.44285458     0.14600
C351        C  0.94939443  0.65747896  0.45597974    -0.15000
C352        C  0.95013151  0.62189333  0.46048625    -0.30200
H353        H  0.96243970  0.67220874  0.44433641     0.14000
H354        H  0.94026557  0.60931808  0.47262775     0.14600
loop_ 
_geom_bond_atom_site_label_1 
_geom_bond_atom_site_label_2 
_geom_bond_distance 
_geom_bond_site_symmetry_2 
_ccdc_geom_bond_type 
N1            N2   1.321       .  A
N1            C5   1.349       .  A
N1           Cu9   2.083       .  S
N2            C3   1.343       .  A
N2           Cu8   2.068   1_655  S
C3            C4   1.380       .  A
C3            H6   1.082       .  S
C4            C5   1.388       .  A
C4          C352   1.476       .  S
C5            H7   1.081       .  S
Cu8          N11   2.068       .  S
Cu9          N19   2.084       .  S
Cu10         N12   2.095       .  S
Cu10         N18   2.096       .  S
N11          N12   1.322       .  A
N11          C15   1.344       .  A
N12          C13   1.351       .  A
C13          C14   1.390       .  A
C13          H16   1.081       .  S
C14          C15   1.380       .  A
C14         C347   1.480       .  S
C15          H17   1.082       .  S
N18          N19   1.326   1_455  A
N18          C22   1.349       .  A
N19          C20   1.347       .  A
C20          C21   1.380       .  A
C20          H23   1.081       .  S
C21          C22   1.383   1_655  A
C21         C346   1.444       .  S
C22          H24   1.082       .  S
N25          N26   1.323       .  A
N25          C29   1.348       .  A
N25         Cu33   2.082       .  S
N26          C27   1.346       .  A
N26         Cu32   2.083   1_565  S
C27          C28   1.382       .  A
C27          H30   1.082       .  S
C28          C29   1.386       .  A
C28         C337   1.480       .  S
C29          H31   1.081       .  S
Cu32         N35   2.082       .  S
Cu33         N43   2.083       .  S
Cu34         N36   2.074       .  S
Cu34         N42   2.075   1_545  S
N35          N36   1.321       .  A
N35          C39   1.347       .  A
N36          C37   1.346       .  A
C37          C38   1.383       .  A
C37          H40   1.082       .  S
C38          C39   1.388       .  A
C38         C341   1.480       .  S
C39          H41   1.078       .  S
N42          N43   1.324       .  A
N42          C46   1.345       .  A
N43          C44   1.347       .  A
C44          C45   1.381       .  A
C44          H47   1.082       .  S
C45          C46   1.378       .  A
C45         C336   1.438       .  S
C46          H48   1.082   1_565  S
N49          N50   1.322       .  A
N49          C53   1.348       .  A
N49         Cu57   2.087   1_455  S
N50          C51   1.346       .  A
N50         Cu56   2.074   1_455  S
C51          C52   1.385       .  A
C51          H54   1.079       .  S
C52          C53   1.386       .  A
C52         C327   1.481       .  S
C53          H55   1.082       .  S
Cu56         N59   2.074       .  S
Cu57         N67   2.088       .  S
Cu58         N60   2.088       .  S
Cu58         N66   2.089       .  S
N59          N60   1.322       .  A
N59          C63   1.345       .  A
N60          C61   1.349       .  A
C61          C62   1.388       .  A
C61          H64   1.081       .  S
C62          C63   1.381       .  A
C62         C331   1.479       .  S
C63          H65   1.082       .  S
N66          N67   1.325       .  A
N66          C70   1.348       .  A
N67          C68   1.347       .  A
C68          C69   1.381       .  A
C68          H71   1.083   1_655  S
C69          C70   1.381       .  A
C69         C345   1.444       .  S
C70          H72   1.082       .  S
N73          N74   1.321       .  A
N73          C77   1.347       .  A
N73         Cu81   2.083       .  S
N74          C75   1.346       .  A
N74         Cu80   2.075       .  S
C75          C76   1.386       .  A
C75          H78   1.082       .  S
C76          C77   1.385       .  A
C76         C332   1.481       .  S
C77          H79   1.082       .  S
Cu80         N83   2.075       .  S
Cu81         N91   2.084       .  S
Cu82         N84   2.092       .  S
Cu82         N90   2.092       .  S
N83          N84   1.324       .  A
N83          C87   1.344       .  A
N84          C85   1.350       .  A
C85          C86   1.388       .  A
C85          H88   1.080       .  S
C86          C87   1.380       .  A
C86         C342   1.478       .  S
C87          H89   1.082       .  S
N90          N91   1.325       .  A
N90          C94   1.349       .  A
N91          C92   1.346       .  A
C92          C93   1.380       .  A
C92          H95   1.083       .  S
C93          C94   1.383       .  A
C93         C326   1.445       .  S
C94          H96   1.084       .  S
N97          N98   1.322       .  A
N97         C101   1.347       .  A
N97        Cu105   2.083       .  S
N98          C99   1.347       .  A
N98        Cu104   2.080       .  S
C99         C100   1.386       .  A
C99         H102   1.082       .  S
C100        C101   1.384       .  A
C100        C338   1.480       .  S
C101        H103   1.082       .  S
Cu104       N107   2.081       .  S
Cu105       N115   2.084       .  S
Cu106       N108   2.088       .  S
Cu106       N114   2.089       .  S
N107        N108   1.323       .  A
N107        C111   1.345       .  A
N108        C109   1.349       .  A
C109        C110   1.387       .  A
C109        H112   1.081       .  S
C110        C111   1.382       .  A
C110        C328   1.479       .  S
C111        H113   1.082       .  S
N114        N115   1.325       .  A
N114        C118   1.348       .  A
N115        C116   1.347       .  A
C116        C117   1.381       .  A
C116        H119   1.084       .  S
C117        C118   1.382       .  A
C117        C323   1.445       .  S
C118        H120   1.084       .  S
N121        N122   1.323       .  A
N121        C125   1.347       .  A
N121       Cu129   2.076       .  S
N122        C123   1.344       .  A
N122       Cu128   2.076   1_545  S
C123        C124   1.381       .  A
C123        H126   1.081       .  S
C124        C125   1.385       .  A
C124        C316   1.475       .  S
C125        H127   1.081       .  S
Cu128       N131   2.076       .  S
Cu129       N139   2.076   1_545  S
Cu130       N132   2.079       .  S
Cu130       N138   2.079       .  S
N131        N132   1.322       .  A
N131        C135   1.345       .  A
N132        C133   1.347       .  A
C133        C134   1.386       .  A
C133        H136   1.081       .  S
C134        C135   1.382       .  A
C134        C319   1.478       .  S
C135        H137   1.082       .  S
N138        N139   1.324       .  A
N138        C142   1.346       .  A
N139        C140   1.346   1_565  A
C140        C141   1.379   1_545  A
C140        H143   1.082       .  S
C141        C142   1.380       .  A
C141        C335   1.439       .  S
C142        H144   1.081       .  S
N145        N146   1.323       .  A
N145        C149   1.346       .  A
N145       Cu153   2.077       .  S
N146        C147   1.347       .  A
N146       Cu152   2.082       .  S
C147        C148   1.386       .  A
C147        H150   1.080       .  S
C148        C149   1.382       .  A
C148        C320   1.479       .  S
C149        H151   1.081       .  S
Cu152       N155   2.082       .  S
Cu153       N163   2.077       .  S
Cu154       N156   2.072       .  S
Cu154       N162   2.073       .  S
N155        N156   1.323       .  A
N155        C159   1.347       .  A
N156        C157   1.345       .  A
C157        C158   1.381       .  A
C157        H160   1.081       .  S
C158        C159   1.387       .  A
C158        C307   1.477       .  S
C159        H161   1.082       .  S
N162        N163   1.323       .  A
N162        C166   1.346       .  A
N163        C164   1.346       .  A
C164        C165   1.380       .  A
C164        H167   1.083       .  S
C165        C166   1.380       .  A
C165        C314   1.440       .  S
C166        H168   1.083       .  S
N169        N170   1.322       .  A
N169        C173   1.346       .  A
N169       Cu177   2.078       .  S
N170        C171   1.345       .  A
N170       Cu176   2.074       .  S
C171        C172   1.385       .  A
C171        H174   1.081       .  S
C172        C173   1.383       .  A
C172        C315   1.477       .  S
C173        H175   1.081       .  S
Cu176       N179   2.074       .  S
Cu177       N187   2.078       .  S
Cu178       N180   2.075       .  S
Cu178       N186   2.075       .  S
N179        N180   1.323       .  A
N179        C183   1.345       .  A
N180        C181   1.345       .  A
C181        C182   1.381       .  A
C181        H184   1.081       .  S
C182        C183   1.383       .  A
C182        C304   1.473       .  S
C183        H185   1.082       .  S
N186        N187   1.323       .  A
N186        C190   1.347       .  A
N187        C188   1.346       .  A
C188        C189   1.380       .  A
C188        H191   1.083       .  S
C189        C190   1.381       .  A
C189        C311   1.440       .  S
C190        H192   1.082       .  S
N193        N194   1.324       .  A
N193        C197   1.348       .  A
N193       Cu201   2.085       .  S
N194        C195   1.344       .  A
N194       Cu200   2.074       .  S
C195        C196   1.380       .  A
C195        H198   1.082       .  S
C196        C197   1.387       .  A
C196        C308   1.476       .  S
C197        H199   1.080       .  S
Cu200       N203   2.073       .  S
Cu201       N211   2.084       .  S
Cu202       N204   2.072       .  S
Cu202       N210   2.073       .  S
N203        N204   1.322       .  A
N203        C207   1.346       .  A
N204        C205   1.344       .  A
C205        C206   1.380       .  A
C205        H208   1.084       .  S
C206        C207   1.385       .  A
C206        C303   1.473       .  S
C207        H209   1.081       .  S
N210        N211   1.323       .  A
N210        C214   1.345       .  A
N211        C212   1.347       .  A
C212        C213   1.382       .  A
C212        H215   1.083       .  S
C213        C214   1.379       .  A
C213        C301   1.440       .  S
C214        H216   1.083       .  S
N217        N218   1.323       .  A
N217        C221   1.347       .  A
N217       Cu225   2.081       .  S
N218        C219   1.347       .  A
N218       Cu224   2.083       .  S
C219        C220   1.383       .  A
C219        H222   1.082       .  S
C220        C221   1.384       .  A
C220        C297   1.477       .  S
C221        H223   1.082       .  S
Cu224       N227   2.082       .  S
Cu225       N235   2.081       .  S
Cu226       N228   2.072       .  S
Cu226       N234   2.072       .  S
N227        N228   1.322       .  A
N227        C231   1.347       .  A
N228        C229   1.346       .  A
C229        C230   1.381       .  A
C229        H232   1.080       .  S
C230        C231   1.388       .  A
C230        C293   1.479       .  S
C231        H233   1.079       .  S
N234        N235   1.323       .  A
N234        C238   1.346       .  A
N235        C236   1.346       .  A
C236        C237   1.381       .  A
C236        H239   1.083       .  S
C237        C238   1.380       .  A
C237        C302   1.440       .  S
C238        H240   1.082       .  S
N241        N242   1.322       .  A
N241        C245   1.348       .  A
N241       Cu249   2.091       .  S
N242        C243   1.347       .  A
N242       Cu248   2.074       .  S
C243        C244   1.386       .  A
C243        H246   1.081       .  S
C244        C245   1.385       .  A
C244        C348   1.482       .  S
C245        H247   1.080       .  S
Cu248       N251   2.074       .  S
Cu249       N259   2.091       .  S
Cu250       N252   2.082       .  S
Cu250       N258   2.083       .  S
N251        N252   1.323       .  A
N251        C255   1.344       .  A
N252        C253   1.348       .  A
C253        C254   1.387       .  A
C253        H256   1.081       .  S
C254        C255   1.380       .  A
C254        C294   1.477       .  S
C255        H257   1.081       .  S
N258        N259   1.325       .  A
N258        C262   1.348       .  A
N259        C260   1.347       .  A
C260        C261   1.382       .  A
C260        H263   1.082       .  S
C261        C262   1.382       .  A
C261        C292   1.445       .  S
C262        H264   1.083       .  S
N265        N266   1.321       .  A
N265        C269   1.348       .  A
N265       Cu273   2.079       .  S
N266        C267   1.344       .  A
N266       Cu272   2.073       .  S
C267        C268   1.385       .  A
C267        H270   1.080       .  S
C268        C269   1.384       .  A
C268        C351   1.479       .  S
C269        H271   1.081       .  S
Cu272       N275   2.073       .  S
Cu273       N283   2.080       .  S
Cu274       N276   2.090       .  S
Cu274       N282   2.091       .  S
N275        N276   1.323       .  A
N275        C279   1.345       .  A
N276        C277   1.349       .  A
C277        C278   1.386       .  A
C277        H280   1.083       .  S
C278        C279   1.380       .  A
C278        C298   1.476       .  S
C279        H281   1.081       .  S
N282        N283   1.325       .  A
N282        C286   1.349       .  A
N283        C284   1.346       .  A
C284        C285   1.379       .  A
C284        H287   1.083       .  S
C285        C286   1.383       .  A
C285        C289   1.444       .  S
C286        H288   1.083       .  S
C289        C290   1.210       .  T
C290        C291   1.419   1_665  S
C291        C292   1.210       .  T
C293        C294   1.342       .  D
C293        H295   1.085       .  S
C294        H296   1.085       .  S
C297        C298   1.342       .  D
C297        H299   1.086       .  S
C298        H300   1.086       .  S
C301        C302   1.208       .  T
C303        C304   1.341       .  D
C303        H305   1.087       .  S
C304        H306   1.087       .  S
C307        C308   1.342       .  D
C307        H309   1.086       .  S
C308        H310   1.086       .  S
C311        C312   1.207       .  T
C312        C313   1.415   1_445  S
C313        C314   1.207       .  T
C315        C316   1.342       .  D
C315        H317   1.086       .  S
C316        H318   1.086       .  S
C319        C320   1.344       .  D
C319        H321   1.086       .  S
C320        H322   1.086       .  S
C323        C324   1.210   1_565  T
C324        C325   1.420   1_455  S
C325        C326   1.211       .  T
C327        C328   1.344       .  D
C327        H329   1.088       .  S
C328        H330   1.088       .  S
C331        C332   1.343       .  D
C331        H333   1.087       .  S
C332        H334   1.087       .  S
C335        C336   1.207   1_556  T
C337        C338   1.344       .  D
C337        H339   1.087       .  S
C338        H340   1.087       .  S
C341        C342   1.342       .  D
C341        H343   1.088       .  S
C342        H344   1.088       .  S
C345        C346   1.210       .  T
C347        C348   1.344       .  D
C347        H349   1.087       .  S
C348        H350   1.086       .  S
C351        C352   1.343       .  D
C351        H353   1.086       .  S
C352        H354   1.086       .  S
