geometry optimzed in LAMMPS
_audit_creation_date              2020-11-30 
_audit_creation_method            'lammps2cif' 
_symmetry_space_group_name_H-M    'P1' 
_symmetry_Int_Tables_number       1 
_symmetry_cell_setting            triclinic 
loop_ 
_symmetry_equiv_pos_as_xyz 
  x,y,z 
_cell_length_a                    31.8308296 
_cell_length_b                    31.819794826268726 
_cell_length_c                    41.546947477693834 
_cell_angle_alpha                 89.9493619604228 
_cell_angle_beta                  90.04184164177276 
_cell_angle_gamma                 89.95100002853498 
loop_ 
_atom_site_label 
_atom_site_type_symbol 
_atom_site_fract_x 
_atom_site_fract_y 
_atom_site_fract_z 
_atom_site_charge 
N1          N  0.37529420  0.50335970  0.64577950    -0.25500
N2          N  0.38804465  0.52005292  0.67327910    -0.33300
C3          C  0.36675002  0.50200809  0.69768701     0.02900
C4          C  0.33942350  0.47270192  0.68486634     0.08900
C5          C  0.34560258  0.47431723  0.65198147    -0.04200
H6          H  0.37109936  0.50946768  0.72287639     0.09600
H7          H  0.32998256  0.45551976  0.63388653     0.10800
Cu8        Cu  0.43429840  0.56637060  0.67629338     0.44200
Cu9        Cu  0.39948225  0.52006797  0.60097329     0.42000
Cu10       Cu  0.48081846  0.60012563  0.60089183     0.43900
N11         N  0.48048866  0.61270292  0.67306616    -0.32900
N12         N  0.49737356  0.62505431  0.64552851    -0.27100
C13         C  0.52647118  0.65474486  0.65161975    -0.03200
C14         C  0.52790738  0.66131083  0.68447532     0.09000
C15         C  0.49843538  0.63424282  0.69738038     0.02800
H16         H  0.54547303  0.67003761  0.63348929     0.10400
H17         H  0.49087400  0.63014898  0.72257660     0.09500
N18         N  0.45938291  0.57002845  0.55944716    -0.34300
N19         N  0.42965793  0.54098633  0.55945419    -0.26500
C20         C  0.42358616  0.52751249  0.52907082    -0.01700
C21         C  0.45080424  0.54903157  0.50895932     0.06900
C22         C  0.47298538  0.57572683  0.52906265     0.05000
H23         H  0.40132152  0.50345638  0.52221531     0.10100
H24         H  0.49751838  0.59745021  0.52218693     0.08900
N25         N  0.54777412  0.57489880  0.34049333    -0.25500
N26         N  0.53945011  0.55357195  0.31390695    -0.33300
C27         C  0.56632657  0.56564009  0.29063913     0.02900
C28         C  0.59268373  0.59598447  0.30316622     0.08900
C29         C  0.58020866  0.60109803  0.33479926    -0.04200
H30         H  0.56708120  0.55269806  0.26656630     0.09600
H31         H  0.59411854  0.62172981  0.35253407     0.10800
Cu32       Cu  0.49294456  0.50768232  0.31080289     0.44200
Cu33       Cu  0.51547907  0.56582201  0.38361559     0.42000
Cu34       Cu  0.43280732  0.48612982  0.38300322     0.43900
N35         N  0.44620828  0.46196311  0.31338659    -0.32900
N36         N  0.42411775  0.45411089  0.33969365    -0.27100
C37         C  0.39779865  0.42184150  0.33380071    -0.03200
C38         C  0.40363137  0.40895305  0.30234623     0.09000
C39         C  0.43452275  0.43491674  0.29011084     0.02800
H40         H  0.37677971  0.40813627  0.35136018     0.10400
H41         H  0.44823888  0.43363182  0.26630841     0.09500
N42         N  0.45020455  0.52030842  0.42374342    -0.34300
N43         N  0.48015458  0.54914597  0.42391916    -0.26500
C44         C  0.48449687  0.56412272  0.45404984    -0.01700
C45         C  0.45604474  0.54375334  0.47383937     0.06900
C46         C  0.43479538  0.51623922  0.45378847     0.05000
H47         H  0.50724471  0.58762097  0.46110692     0.10100
H48         H  0.41040271  0.49433104  0.46060719     0.08900
C49         C  0.21532290  0.13275909  0.73174446     0.82000
N50         N  0.20611750  0.17442301  0.73259595    -0.76300
C51         C  0.23368111  0.20219233  0.74570562     0.84500
N52         N  0.27030202  0.18783306  0.75869698    -0.76200
C53         C  0.27907091  0.14598174  0.75871231     0.84600
N54         N  0.25167938  0.11857004  0.74500540    -0.77900
C55         C  0.25924337  0.39249074  0.73152831     0.82000
N56         N  0.26880422  0.35090887  0.73288745    -0.76300
C57         C  0.24111598  0.32303604  0.74573893     0.84500
N58         N  0.20407389  0.33722196  0.75804579    -0.76200
C59         C  0.19492856  0.37897269  0.75757656     0.84600
N60         N  0.22240120  0.40648149  0.74406495    -0.77900
C61         C  0.12113710  0.22054918  0.25771193     0.82000
N62         N  0.16292910  0.22945039  0.25791639    -0.76300
C63         C  0.17711346  0.26647325  0.24553432     0.84500
N64         N  0.14922088  0.29430856  0.23281426    -0.76200
C65         C  0.10760906  0.28500384  0.23174195     0.84600
N66         N  0.09360246  0.24823289  0.24440051    -0.77900
C67         C  0.35387763  0.30550710  0.25782354     0.82000
N68         N  0.38135704  0.27831243  0.24395288    -0.76300
C69         C  0.36737657  0.24172933  0.23100867     0.84500
N70         N  0.32585409  0.23211741  0.23228392    -0.76200
C71         C  0.29798757  0.25949918  0.24551378     0.84600
N72         N  0.31214202  0.29631854  0.25825395    -0.77900
N73         N  0.92518822  0.57211440  0.83987694    -0.25500
N74         N  0.94610717  0.56376356  0.81311762    -0.33300
C75         C  0.93382640  0.59082622  0.78998035     0.02900
C76         C  0.90377151  0.61731963  0.80281104     0.08900
C77         C  0.89905578  0.60471988  0.83445305    -0.04200
H78         H  0.94663627  0.59180949  0.76587217     0.09600
H79         H  0.87896422  0.61885745  0.85244428     0.10800
Cu80       Cu  0.99221065  0.51740176  0.80999766     0.44200
Cu81       Cu  0.93523534  0.54019415  0.88303629     0.42000
Cu82       Cu  0.01645580  0.45963762  0.88335910     0.43900
N83         N  0.03833148  0.47103163  0.81302840    -0.32900
N84         N  0.04722059  0.44998343  0.83968591    -0.27100
C85         C  0.07955559  0.42371240  0.83381311    -0.03200
C86         C  0.09138800  0.42847959  0.80201578     0.09000
C87         C  0.06476262  0.45869222  0.78955210     0.02800
H88         H  0.09404058  0.40349148  0.85160059     0.10400
H89         H  0.06523542  0.47158680  0.76544439     0.09500
N90         N  0.98204742  0.47677515  0.92396364    -0.34300
N91         N  0.95249792  0.50605186  0.92379409    -0.26500
C92         C  0.93713701  0.51031858  0.95380800    -0.01700
C93         C  0.95798532  0.48245785  0.97386002     0.06900
C94         C  0.98620113  0.46167672  0.95410601     0.05000
H95         H  0.91292634  0.53248805  0.96057601     0.10100
H96         H  0.00851937  0.43771691  0.96116464     0.08900
N97         N  0.99665415  0.40110552  0.14590939    -0.25500
N98         N  0.97999533  0.41396370  0.17337807    -0.33300
C99         C  0.99810505  0.39277135  0.19784830     0.02900
C100        C  0.02742124  0.36538593  0.18508903     0.08900
C101        C  0.02574218  0.37142657  0.15218327    -0.04200
H102        H  0.99067701  0.39722197  0.22302653     0.09600
H103        H  0.04454132  0.35573712  0.13412459     0.10800
Cu104      Cu  0.93370746  0.46027709  0.17614172     0.44200
Cu105      Cu  0.97991890  0.42535805  0.10109401     0.42000
Cu106      Cu  0.89979571  0.50655239  0.10028715     0.43900
N107        N  0.88754565  0.50661814  0.17247240    -0.32900
N108        N  0.87517255  0.52330905  0.14483984    -0.27100
C109        C  0.84535371  0.55235006  0.15072687    -0.03200
C110        C  0.83870649  0.55392467  0.18354081     0.09000
C111        C  0.86587012  0.52465232  0.19665461     0.02800
H112        H  0.82992571  0.57110488  0.13246870     0.10400
H113        H  0.86981775  0.51716511  0.22188830     0.09500
N114        N  0.93036986  0.48528068  0.05915549    -0.34300
N115        N  0.95960392  0.45570632  0.05941690    -0.26500
C116        C  0.97365237  0.44989669  0.02916883    -0.01700
C117        C  0.95225556  0.47709470  0.00890553     0.06900
C118        C  0.92505320  0.49900950  0.02875751     0.05000
H119        H  0.99795945  0.42777988  0.02250344     0.10100
H120        H  0.90328636  0.52348181  0.02172107     0.08900
C121        C  0.69477762  0.64681862  0.25755701     0.82000
N122        N  0.72191205  0.61944317  0.24348903    -0.76300
C123        C  0.75815240  0.63361350  0.23011840     0.84500
N124        N  0.76751979  0.67520181  0.23121316    -0.76200
C125        C  0.74022069  0.70295559  0.24466348     0.84600
N126        N  0.70369573  0.68863728  0.25778284    -0.77900
C127        C  0.77978702  0.87953585  0.25802541     0.82000
N128        N  0.75242635  0.90726886  0.24456575    -0.76300
C129        C  0.71576422  0.89347333  0.23161453     0.84500
N130        N  0.70618549  0.85192233  0.23259269    -0.76200
C131        C  0.73368719  0.82384008  0.24545461     0.84600
N132        N  0.77065586  0.83777385  0.25808233    -0.77900
N133        N  0.47739671  0.12514988  0.14526117    -0.25500
N134        N  0.49454928  0.11296621  0.17277909    -0.33300
C135        C  0.47684498  0.13468661  0.19707563     0.02900
C136        C  0.44728181  0.16168064  0.18416617     0.08900
C137        C  0.44835985  0.15489685  0.15135641    -0.04200
H138        H  0.48467758  0.13080134  0.22225285     0.09600
H139        H  0.42921822  0.17014321  0.13324519     0.10800
Cu140      Cu  0.54085970  0.06688507  0.17625158     0.44200
Cu141      Cu  0.49346007  0.10046312  0.10052381     0.42000
Cu142      Cu  0.57414562  0.02035745  0.10107463     0.43900
N143        N  0.58702555  0.02066761  0.17311684    -0.32900
N144        N  0.59926647  0.00375376  0.14558262    -0.27100
C145        C  0.62909040  0.97473782  0.15162909    -0.03200
C146        C  0.63584114  0.97343681  0.18446393     0.09000
C147        C  0.60874405  0.00283886  0.19740624     0.02800
H148        H  0.64439305  0.95576312  0.13348285     0.10400
H149        H  0.60482041  0.01050182  0.22259747     0.09500
N150        N  0.54428328  0.04109418  0.05938882    -0.34300
N151        N  0.51479249  0.07039928  0.05913523    -0.26500
C152        C  0.50148017  0.07611186  0.02865861    -0.01700
C153        C  0.52361722  0.04907668  0.00878061     0.06900
C154        C  0.55048329  0.02739566  0.02910359     0.05000
H155        H  0.47713846  0.09799992  0.02158133     0.10100
H156        H  0.57262470  0.00310137  0.02245585     0.08900
N157        N  0.42834426  0.07509996  0.83981584    -0.25500
N158        N  0.43718388  0.05469704  0.81291715    -0.33300
C159        C  0.41004569  0.06682430  0.78979472     0.02900
C160        C  0.38298152  0.09623828  0.80278902     0.08900
C161        C  0.39532408  0.10073788  0.83450599    -0.04200
H162        H  0.40945443  0.05437930  0.76556615     0.09600
H163        H  0.38083167  0.12043736  0.85258876     0.10800
Cu164      Cu  0.48425053  0.00938516  0.80964742     0.44200
Cu165      Cu  0.46047200  0.06521574  0.88289877     0.42000
Cu166      Cu  0.54125391  0.98423536  0.88341570     0.43900
N167        N  0.53017869  0.96287861  0.81289280    -0.32900
N168        N  0.55072390  0.95349786  0.83968362    -0.27100
C169        C  0.57650379  0.92074159  0.83389959    -0.03200
C170        C  0.57196461  0.90916892  0.80203026     0.09000
C171        C  0.54239422  0.93638097  0.78942072     0.02800
H172        H  0.59629073  0.90585454  0.85177687     0.10400
H173        H  0.52980064  0.93624285  0.76521966     0.09500
N174        N  0.52433727  0.01909575  0.92387316    -0.34300
N175        N  0.49499284  0.04857745  0.92360976    -0.26500
C176        C  0.49071977  0.06415059  0.95356034    -0.01700
C177        C  0.51861230  0.04348880  0.97368606     0.06900
C178        C  0.53946630  0.01519377  0.95402493     0.05000
H179        H  0.46838264  0.08823687  0.96026720     0.10100
H180        H  0.56336750  0.99287121  0.96118261     0.05700
N181        N  0.97875516  0.90005177  0.64519157    -0.25500
N182        N  0.99531385  0.91297621  0.67268723    -0.33300
C183        C  0.97719668  0.89192044  0.69715893     0.02900
C184        C  0.94795039  0.86453810  0.68440796     0.08900
C185        C  0.94965405  0.87043694  0.65147687    -0.04200
H186        H  0.98458808  0.89646810  0.72234286     0.09600
H187        H  0.93092736  0.85465587  0.63342000     0.10800
Cu188      Cu  0.04148548  0.95911480  0.67569282     0.44200
Cu189      Cu  0.99595977  0.92400596  0.60037076     0.42000
Cu190      Cu  0.07655146  0.00484113  0.60021531     0.43900
N191        N  0.08756091  0.00535369  0.67255816    -0.32900
N192        N  0.10039828  0.02198001  0.64505431    -0.27100
C193        C  0.12992768  0.05116601  0.65131570    -0.03200
C194        C  0.13587332  0.05286040  0.68423375     0.09000
C195        C  0.10861316  0.02351127  0.69700909     0.02800
H196        H  0.14562177  0.06995296  0.63324897     0.10400
H197        H  0.10412689  0.01609740  0.72219531     0.09500
N198        N  0.04637133  0.98357711  0.55878277    -0.34300
N199        N  0.01703659  0.95413910  0.55881842    -0.26500
C200        C  0.00320620  0.94849041  0.52847197    -0.01700
C201        C  0.02479734  0.97568228  0.50836691     0.06900
C202        C  0.05192309  0.99739393  0.52842770     0.05000
H203        H  0.97879471  0.92660092  0.52164811     0.10100
H204        H  0.07372340  0.02186870  0.52156690     0.08900
N205        N  0.05005363  0.07247560  0.33952686    -0.25500
N206        N  0.02826856  0.06449014  0.31308434    -0.33300
C207        C  0.04046210  0.09114663  0.28969451     0.02900
C208        C  0.07136939  0.11700079  0.30199901     0.08900
C209        C  0.07669438  0.10446386  0.33360913    -0.04200
H210        H  0.02704868  0.09227020  0.26576690     0.09600
H211        H  0.09755415  0.11824827  0.35125164     0.10800
Cu212      Cu  0.98147888  0.01899227  0.31033193     0.44200
Cu213      Cu  0.04071670  0.04087074  0.38293702     0.42000
Cu214      Cu  0.96058531  0.95915205  0.38267398     0.43900
N215        N  0.93632867  0.97185236  0.31300352    -0.32900
N216        N  0.92869760  0.94982394  0.33939210    -0.27100
C217        C  0.89671856  0.92314057  0.33356570    -0.03200
C218        C  0.88381511  0.92868363  0.30206269     0.09000
C219        C  0.90945811  0.95976602  0.28973044     0.02800
H220        H  0.88313230  0.90216563  0.35122214     0.10400
H221        H  0.90797693  0.97343485  0.26589743     0.09500
N222        N  0.99505762  0.97613940  0.42334169    -0.34300
N223        N  0.02409571  0.00588186  0.42344615    -0.26500
C224        C  0.03942431  0.00990790  0.45351664    -0.01700
C225        C  0.01908389  0.98141293  0.47331864     0.06900
C226        C  0.99121051  0.96051557  0.45334684     0.05000
H227        H  0.06323179  0.03236397  0.46050729     0.10100
H228        H  0.96927182  0.93615090  0.46018138     0.08900
C229        C  0.86795589  0.78525546  0.73201219     0.82000
N230        N  0.82633089  0.79460334  0.73264822    -0.76300
C231        C  0.79835888  0.76712064  0.74560279     0.84500
N232        N  0.81246869  0.73040310  0.75862557    -0.76200
C233        C  0.85427751  0.72148932  0.75886868     0.84600
N234        N  0.88190089  0.74883110  0.74534255    -0.77900
C235        C  0.60809622  0.74137925  0.73125013     0.82000
N236        N  0.59395982  0.77801745  0.74404605    -0.76300
C237        C  0.62139083  0.80562255  0.75748223     0.84500
N238        N  0.66320730  0.79678143  0.75767219    -0.76200
C239        C  0.67752348  0.75988711  0.74516584     0.84600
N240        N  0.64973611  0.73211062  0.73233235    -0.77900
C241        C  0.75315551  0.77816321  0.74600204    -0.14600
C242        C  0.72271923  0.74888948  0.74616155    -0.29800
H243        H  0.74471489  0.81118917  0.74430228     0.14400
H244        H  0.73117639  0.71582191  0.74516373     0.15000
C245        C  0.89693153  0.81311868  0.71600082    -0.11500
C246        C  0.92051541  0.83649187  0.70183819    -0.13000
C247        C  0.60576876  0.84319901  0.77279288    -0.11500
C248        C  0.59111525  0.87373779  0.78602227    -0.13000
C249        C  0.81757174  0.89477825  0.27326584    -0.11500
C250        C  0.84827873  0.90933860  0.28632682    -0.13000
C251        C  0.68781492  0.92250770  0.21569991    -0.11500
C252        C  0.66424241  0.94607674  0.20166908    -0.13000
C253        C  0.75147616  0.74807470  0.24569386    -0.14600
C254        C  0.72239461  0.77871729  0.24613089    -0.29800
H255        H  0.78451738  0.75631643  0.24410299     0.14400
H256        H  0.68930966  0.77052123  0.24498450     0.15000
C257        C  0.81012916  0.58125432  0.20052341    -0.11500
C258        C  0.78632570  0.60477535  0.21430671    -0.13000
C259        C  0.88436044  0.65304149  0.78725149    -0.11500
C260        C  0.86965610  0.68377921  0.77424172    -0.13000
C261        C  0.39630286  0.21364790  0.21519804    -0.11500
C262        C  0.41992835  0.19003053  0.20133648    -0.13000
C263        C  0.25283955  0.24832294  0.24636060    -0.14600
C264        C  0.22228656  0.27752953  0.24644917    -0.29800
H265        H  0.24452615  0.21527549  0.24488408     0.14400
H266        H  0.23062706  0.31059084  0.24520442     0.15000
C267        C  0.05494450  0.33717227  0.20240035    -0.11500
C268        C  0.07864576  0.31345297  0.21619887    -0.13000
C269        C  0.10562437  0.18285471  0.27292316    -0.11500
C270        C  0.09087908  0.15230249  0.28607802    -0.13000
C271        C  0.12670263  0.40911601  0.78601267    -0.11500
C272        C  0.15725022  0.39447004  0.77279924    -0.13000
C273        C  0.22280985  0.24743888  0.74629713    -0.14600
C274        C  0.25213550  0.27783015  0.74670801    -0.29800
H275        H  0.18983180  0.25597289  0.74448431     0.14400
H276        H  0.28518572  0.26934558  0.74582020     0.15000
C277        C  0.18729679  0.10395522  0.71572677    -0.11500
C278        C  0.16387844  0.08036887  0.70161923    -0.13000
C279        C  0.31661365  0.13033064  0.77412550    -0.11500
C280        C  0.34725618  0.11554661  0.78718986    -0.13000
C281        C  0.62768921  0.61589506  0.28711518    -0.11500
C282        C  0.65774063  0.63103580  0.27354614    -0.13000
C283        C  0.36942857  0.34305353  0.27323905    -0.11500
C284        C  0.38423745  0.37354746  0.28643984    -0.13000
C285        C  0.57922874  0.71305537  0.71554991    -0.11500
C286        C  0.55552159  0.68947103  0.70168638    -0.13000
C287        C  0.31120501  0.44518362  0.70211756    -0.11500
C288        C  0.28755758  0.42145883  0.71590891    -0.13000
loop_ 
_geom_bond_atom_site_label_1 
_geom_bond_atom_site_label_2 
_geom_bond_distance 
_geom_bond_site_symmetry_2 
_ccdc_geom_bond_type 
N1            N2   1.324       .  A
N1            C5   1.347       .  A
N1           Cu9   2.084       .  S
N2            C3   1.348       .  A
N2           Cu8   2.088       .  S
C3            C4   1.383       .  A
C3            H6   1.082       .  S
C4            C5   1.381       .  A
C4          C287   1.445       .  S
C5            H7   1.082       .  S
Cu8          N11   2.087       .  S
Cu9          N19   2.084       .  S
Cu10         N12   2.085       .  S
Cu10         N18   2.086       .  S
N11          N12   1.324       .  A
N11          C15   1.348       .  A
N12          C13   1.348       .  A
C13          C14   1.382       .  A
C13          H16   1.082       .  S
C14          C15   1.382       .  A
C14         C286   1.445       .  S
C15          H17   1.082       .  S
N18          N19   1.323       .  A
N18          C22   1.347       .  A
N19          C20   1.347       .  A
C20          C21   1.385       .  A
C20          H23   1.082       .  S
C21          C22   1.385       .  A
C21          C45   1.478       .  S
C22          H24   1.082       .  S
N25          N26   1.324       .  A
N25          C29   1.348       .  A
N25         Cu33   2.086       .  S
N26          C27   1.347       .  A
N26         Cu32   2.084       .  S
C27          C28   1.382       .  A
C27          H30   1.082       .  S
C28          C29   1.383       .  A
C28         C281   1.445       .  S
C29          H31   1.082       .  S
Cu32         N35   2.084       .  S
Cu33         N43   2.086       .  S
Cu34         N36   2.087       .  S
Cu34         N42   2.087       .  S
N35          N36   1.324       .  A
N35          C39   1.347       .  A
N36          C37   1.348       .  A
C37          C38   1.383       .  A
C37          H40   1.082       .  S
C38          C39   1.382       .  A
C38         C284   1.445       .  S
C39          H41   1.082       .  S
N42          N43   1.324       .  A
N42          C46   1.348       .  A
N43          C44   1.347       .  A
C44          C45   1.385       .  A
C44          H47   1.082       .  S
C45          C46   1.385       .  A
C46          H48   1.082       .  S
C49          N50   1.358       .  A
C49          N54   1.358       .  A
C49         C277   1.442       .  S
N50          C51   1.360       .  A
C51          N52   1.363       .  A
C51         C273   1.481       .  S
N52          C53   1.360       .  A
C53          N54   1.359       .  A
C53         C279   1.443       .  S
C55          N56   1.359       .  A
C55          N60   1.358       .  A
C55         C288   1.444       .  S
N56          C57   1.360       .  A
C57          N58   1.362       .  A
C57         C274   1.481       .  S
N58          C59   1.360       .  A
C59          N60   1.359       .  A
C59         C272   1.443       .  S
C61          N62   1.360       .  A
C61          N66   1.359       .  A
C61         C269   1.443       .  S
N62          C63   1.363       .  A
C63          N64   1.360       .  A
C63         C264   1.481       .  S
N64          C65   1.358       .  A
C65          N66   1.358       .  A
C65         C268   1.443       .  S
C67          N68   1.359       .  A
C67          N72   1.361       .  A
C67         C283   1.444       .  S
N68          C69   1.358       .  A
C69          N70   1.358       .  A
C69         C261   1.442       .  S
N70          C71   1.360       .  A
C71          N72   1.363       .  A
C71         C263   1.481       .  S
N73          N74   1.323       .  A
N73          C77   1.348       .  A
N73         Cu81   2.084       .  S
N74          C75   1.348       .  A
N74         Cu80   2.084       .  S
C75          C76   1.382       .  A
C75          H78   1.082       .  S
C76          C77   1.382       .  A
C76         C259   1.445       .  S
C77          H79   1.082       .  S
Cu80         N83   2.084   1_655  S
Cu81         N91   2.084       .  S
Cu82         N84   2.085       .  S
Cu82         N90   2.085   1_455  S
N83          N84   1.324       .  A
N83          C87   1.347       .  A
N84          C85   1.348       .  A
C85          C86   1.382       .  A
C85          H88   1.082       .  S
C86          C87   1.381       .  A
C86         C271   1.444       .  S
C87          H89   1.082       .  S
N90          N91   1.323       .  A
N90          C94   1.347       .  A
N91          C92   1.347       .  A
C92          C93   1.385       .  A
C92          H95   1.082       .  S
C93          C94   1.385       .  A
C93         C117   1.477   1_556  S
C94          H96   1.082   1_655  S
N97          N98   1.324       .  A
N97         C101   1.347   1_655  A
N97        Cu105   2.084       .  S
N98          C99   1.348       .  A
N98        Cu104   2.086       .  S
C99         C100   1.382   1_655  A
C99         H102   1.082       .  S
C100        C101   1.381       .  A
C100        C267   1.445       .  S
C101        H103   1.082       .  S
Cu104       N107   2.086       .  S
Cu105       N115   2.084       .  S
Cu106       N108   2.080       .  S
Cu106       N114   2.081       .  S
N107        N108   1.324       .  A
N107        C111   1.348       .  A
N108        C109   1.347       .  A
C109        C110   1.381       .  A
C109        H112   1.082       .  S
C110        C111   1.382       .  A
C110        C257   1.443       .  S
C111        H113   1.082       .  S
N114        N115   1.323       .  A
N114        C118   1.347       .  A
N115        C116   1.347       .  A
C116        C117   1.385       .  A
C116        H119   1.082       .  S
C117        C118   1.385       .  A
C118        H120   1.082       .  S
C121        N122   1.359       .  A
C121        N126   1.361       .  A
C121        C282   1.444       .  S
N122        C123   1.358       .  A
C123        N124   1.358       .  A
C123        C258   1.442       .  S
N124        C125   1.359       .  A
C125        N126   1.363       .  A
C125        C253   1.481       .  S
C127        N128   1.359       .  A
C127        N132   1.361       .  A
C127        C249   1.443       .  S
N128        C129   1.358       .  A
C129        N130   1.358       .  A
C129        C251   1.442       .  S
N130        C131   1.359       .  A
C131        N132   1.363       .  A
C131        C254   1.481       .  S
N133        N134   1.324       .  A
N133        C137   1.347       .  A
N133       Cu141   2.082       .  S
N134        C135   1.347       .  A
N134       Cu140   2.083       .  S
C135        C136   1.381       .  A
C135        H138   1.082       .  S
C136        C137   1.381       .  A
C136        C262   1.443       .  S
C137        H139   1.082       .  S
Cu140       N143   2.082       .  S
Cu141       N151   2.082       .  S
Cu142       N144   2.082       .  S
Cu142       N150   2.082       .  S
N143        N144   1.323       .  A
N143        C147   1.347       .  A
N144        C145   1.347   1_545  A
C145        C146   1.381       .  A
C145        H148   1.082       .  S
C146        C147   1.382   1_565  A
C146        C252   1.443       .  S
C147        H149   1.082       .  S
N150        N151   1.323       .  A
N150        C154   1.347       .  A
N151        C152   1.347       .  A
C152        C153   1.386       .  A
C152        H155   1.082       .  S
C153        C154   1.385       .  A
C153        C177   1.478   1_554  S
C154        H156   1.082       .  S
N157        N158   1.323       .  A
N157        C161   1.348       .  A
N157       Cu165   2.084       .  S
N158        C159   1.347       .  A
N158       Cu164   2.083       .  S
C159        C160   1.382       .  A
C159        H162   1.082       .  S
C160        C161   1.382       .  A
C160        C280   1.445       .  S
C161        H163   1.082       .  S
Cu164       N167   2.084   1_545  S
Cu165       N175   2.084       .  S
Cu166       N168   2.086       .  S
Cu166       N174   2.086   1_565  S
N167        N168   1.324       .  A
N167        C171   1.347       .  A
N168        C169   1.348       .  A
C169        C170   1.382       .  A
C169        H172   1.082       .  S
C170        C171   1.381       .  A
C170        C248   1.444       .  S
C171        H173   1.082       .  S
N174        N175   1.323       .  A
N174        C178   1.347       .  A
N175        C176   1.347       .  A
C176        C177   1.384       .  A
C176        H179   1.082       .  S
C177        C178   1.385       .  A
C178        H180   1.082   1_545  S
N181        N182   1.324       .  A
N181        C185   1.347       .  A
N181       Cu189   2.085       .  S
N182        C183   1.347       .  A
N182       Cu188   2.082   1_655  S
C183        C184   1.381       .  A
C183        H186   1.082       .  S
C184        C185   1.382       .  A
C184        C246   1.444       .  S
C185        H187   1.082       .  S
Cu188       N191   2.082   1_565  S
Cu189       N199   2.086   1_655  S
Cu190       N192   2.084       .  S
Cu190       N198   2.084   1_545  S
N191        N192   1.324       .  A
N191        C195   1.347       .  A
N192        C193   1.347       .  A
C193        C194   1.382       .  A
C193        H196   1.082       .  S
C194        C195   1.381       .  A
C194        C278   1.444       .  S
C195        H197   1.082       .  S
N198        N199   1.323       .  A
N198        C202   1.347       .  A
N199        C200   1.347       .  A
C200        C201   1.385       .  A
C200        H203   1.082   1_455  S
C201        C202   1.385       .  A
C201        C225   1.478       .  S
C202        H204   1.082   1_565  S
N205        N206   1.324       .  A
N205        C209   1.348       .  A
N205       Cu213   2.086       .  S
N206        C207   1.347       .  A
N206       Cu212   2.081   1_455  S
C207        C208   1.381       .  A
C207        H210   1.082       .  S
C208        C209   1.382       .  A
C208        C270   1.444       .  S
C209        H211   1.082       .  S
Cu212       N215   2.081   1_545  S
Cu213       N223   2.086       .  S
Cu214       N216   2.086       .  S
Cu214       N222   2.086       .  S
N215        N216   1.324       .  A
N215        C219   1.347       .  A
N216        C217   1.348       .  A
C217        C218   1.383       .  A
C217        H220   1.082       .  S
C218        C219   1.381       .  A
C218        C250   1.445       .  S
C219        H221   1.082       .  S
N222        N223   1.323   1_665  A
N222        C226   1.347       .  A
N223        C224   1.347       .  A
C224        C225   1.385   1_545  A
C224        H227   1.082       .  S
C225        C226   1.385   1_455  A
C226        H228   1.082       .  S
C229        N230   1.358       .  A
C229        N234   1.358       .  A
C229        C245   1.442       .  S
N230        C231   1.360       .  A
C231        N232   1.363       .  A
C231        C241   1.481       .  S
N232        C233   1.360       .  A
C233        N234   1.359       .  A
C233        C260   1.444       .  S
C235        N236   1.358       .  A
C235        N240   1.358       .  A
C235        C285   1.443       .  S
N236        C237   1.359       .  A
C237        N238   1.360       .  A
C237        C247   1.443       .  S
N238        C239   1.362       .  A
C239        N240   1.360       .  A
C239        C242   1.481       .  S
C241        C242   1.345       .  D
C241        H243   1.087       .  S
C242        H244   1.087       .  S
C245        C246   1.210       .  T
C247        C248   1.210       .  T
C249        C250   1.210       .  T
C251        C252   1.209       .  T
C253        C254   1.344       .  D
C253        H255   1.086       .  S
C254        H256   1.086       .  S
C257        C258   1.209       .  T
C259        C260   1.211       .  T
C261        C262   1.209       .  T
C263        C264   1.345       .  D
C263        H265   1.086       .  S
C264        H266   1.086       .  S
C267        C268   1.210       .  T
C269        C270   1.210       .  T
C271        C272   1.210       .  T
C273        C274   1.345       .  D
C273        H275   1.087       .  S
C274        H276   1.087       .  S
C277        C278   1.210       .  T
C279        C280   1.210       .  T
C281        C282   1.211       .  T
C283        C284   1.211       .  T
C285        C286   1.211       .  T
C287        C288   1.211       .  T
