geometry optimzed in LAMMPS
_audit_creation_date              2020-11-30 
_audit_creation_method            'lammps2cif' 
_symmetry_space_group_name_H-M    'P1' 
_symmetry_Int_Tables_number       1 
_symmetry_cell_setting            triclinic 
loop_ 
_symmetry_equiv_pos_as_xyz 
  x,y,z 
_cell_length_a                    29.35210689 
_cell_length_b                    29.35221783058775 
_cell_length_c                    29.689168019630113 
_cell_angle_alpha                 89.99460767760812 
_cell_angle_beta                  90.00511114290269 
_cell_angle_gamma                 89.99631862903468 
loop_ 
_atom_site_label 
_atom_site_type_symbol 
_atom_site_fract_x 
_atom_site_fract_y 
_atom_site_fract_z 
_atom_site_charge 
N1          N  0.43739409  0.81371104  0.31877547    -0.27100
N2          N  0.44782821  0.77568574  0.29721868    -0.34900
C3          C  0.41981146  0.74215832  0.31100497     0.01300
C4          C  0.39084136  0.75957836  0.34345915     0.07300
C5          C  0.40304458  0.80501717  0.34772438    -0.05800
H6          H  0.42061186  0.70757215  0.29844278     0.08000
H7          H  0.38693684  0.83026956  0.36894920     0.09200
Cu8        Cu  0.49994255  0.77122695  0.25005100     0.44200
Cu9        Cu  0.46683909  0.87653090  0.30260524     0.42000
Cu10       Cu  0.53292477  0.87654283  0.19741191     0.43900
N11         N  0.55203181  0.77570569  0.20285757    -0.34400
N12         N  0.56241995  0.81372496  0.18126282    -0.28700
C13         C  0.59675436  0.80502946  0.15229339    -0.04800
C14         C  0.60899537  0.75959805  0.15658610     0.07400
C15         C  0.58006271  0.74218600  0.18907833     0.01200
H16         H  0.61282635  0.83027615  0.13103350     0.08900
H17         H  0.57929449  0.70760730  0.20166900     0.07900
N18         N  0.50993842  0.93544223  0.23004093    -0.35900
N19         N  0.48978598  0.93543298  0.26997582    -0.28100
C20         C  0.48373277  0.97889939  0.28342182    -0.03300
C21         C  0.49985153  0.00757563  0.25002252     0.05300
C22         C  0.51597759  0.97891857  0.21661064     0.03400
H23         H  0.46758507  0.98890532  0.31463785     0.08500
H24         H  0.53212824  0.98894506  0.18540134     0.07300
N25         N  0.78190290  0.59908842  0.81539998    -0.27100
N26         N  0.74345003  0.58531014  0.79663686    -0.34900
C27         C  0.70886413  0.61059105  0.81270697     0.01300
C28         C  0.72629332  0.64111650  0.84369279     0.07300
C29         C  0.77267945  0.63283973  0.84473873    -0.05800
H30         H  0.67365869  0.60706013  0.80250874     0.08000
H31         H  0.79805101  0.65127281  0.86387785     0.09200
Cu32       Cu  0.73979593  0.53275693  0.75000824     0.44200
Cu33       Cu  0.84516044  0.57421495  0.79628396     0.42000
Cu34       Cu  0.84513689  0.49119326  0.70380438     0.43900
N35         N  0.74341478  0.48021636  0.70336333    -0.34400
N36         N  0.78186502  0.46640166  0.68462476    -0.28700
C37         C  0.77262394  0.43267903  0.65525917    -0.04800
C38         C  0.72622800  0.42445778  0.65626165     0.07400
C39         C  0.70881141  0.45498651  0.68725078     0.01200
H40         H  0.79798837  0.41422506  0.63613183     0.08900
H41         H  0.67360323  0.45855362  0.69742280     0.07900
N42         N  0.90342048  0.51796508  0.73315314    -0.35900
N43         N  0.90342861  0.54740442  0.76694678    -0.28100
C44         C  0.94675503  0.55710372  0.77814683    -0.03300
C45         C  0.97507164  0.53268620  0.75003489     0.05300
C46         C  0.94674179  0.50826769  0.72193476     0.03400
H47         H  0.95681672  0.58038903  0.80457319     0.08500
H48         H  0.95679124  0.48499590  0.69549282     0.07300
N49         N  0.56468117  0.81390998  0.81687311    -0.27100
N50         N  0.55222342  0.77560532  0.79692519    -0.34900
C51         C  0.57843868  0.74130818  0.81215538     0.01300
C52         C  0.60825212  0.75867031  0.84384431     0.07300
C53         C  0.59854532  0.80476950  0.84616632    -0.05800
H54         H  0.57596268  0.70632152  0.80096537     0.08000
H55         H  0.61606782  0.83007042  0.86620750     0.09200
Cu56       Cu  0.50006818  0.77169179  0.74990303     0.44200
Cu57       Cu  0.53814358  0.87720086  0.79900766     0.42000
Cu58       Cu  0.46172001  0.87723466  0.70111125     0.43900
N59         N  0.44783776  0.77560371  0.70296028    -0.34400
N60         N  0.43525619  0.81393987  0.68313819    -0.28700
C61         C  0.40134816  0.80481180  0.65389229    -0.04800
C62         C  0.39174200  0.75868537  0.65611490     0.07400
C63         C  0.42166176  0.74129531  0.68769737     0.01200
H64         H  0.38372592  0.83013406  0.63395590     0.08900
H65         H  0.42422955  0.70628426  0.69880004     0.07900
N66         N  0.48707191  0.93587638  0.73174540    -0.35900
N67         N  0.51284753  0.93586294  0.76837022    -0.28100
C68         C  0.52110286  0.97926069  0.78064094    -0.03300
C69         C  0.50001679  0.00776803  0.75003888     0.05300
C70         C  0.47888458  0.97928433  0.71945279     0.03400
H71         H  0.54158699  0.98928511  0.80925908     0.08500
H72         H  0.45841715  0.98933364  0.69082886     0.07300
C73         C  0.70213549  0.67763820  0.13246831     0.80400
N74         N  0.71406390  0.68990395  0.08994908    -0.77900
C75         C  0.69131061  0.72385628  0.06846897     0.82900
N76         N  0.65803174  0.74716324  0.09046510    -0.77800
C77         C  0.64589969  0.73512977  0.13303824     0.83000
N78         N  0.66707734  0.69938079  0.15332864    -0.79500
C79         C  0.70122625  0.67702452  0.86765599     0.80400
N80         N  0.66563382  0.69819246  0.84724194    -0.77900
C81         C  0.64446568  0.73378312  0.86765361     0.82900
N82         N  0.65696369  0.74612405  0.91001129    -0.77800
C83         C  0.69065657  0.72318170  0.93171831     0.83000
N84         N  0.71360272  0.68949312  0.91001469    -0.79500
N85         N  0.78093471  0.47057303  0.31873831    -0.27100
N86         N  0.74268570  0.48172519  0.29793462    -0.34900
C87         C  0.70890633  0.45442154  0.31238797     0.01300
C88         C  0.72648726  0.42508012  0.34436880     0.07300
C89         C  0.77219939  0.43637886  0.34780135    -0.05800
H90         H  0.67417483  0.45565061  0.30025206     0.08000
H91         H  0.79762504  0.41954359  0.36826585     0.09200
Cu92       Cu  0.73828934  0.53278851  0.24997866     0.44200
Cu93       Cu  0.84400140  0.49845549  0.30145398     0.42000
Cu94       Cu  0.84398933  0.56715199  0.19850336     0.43900
N95         N  0.74266231  0.58384681  0.20201686    -0.34400
N96         N  0.78090423  0.59501526  0.18121763    -0.28700
C97         C  0.77214362  0.62919552  0.15214234    -0.04800
C98         C  0.72642217  0.64046655  0.15556158     0.07400
C99         C  0.70886312  0.61112449  0.18754783     0.01200
H100        H  0.79755622  0.64603728  0.13167433     0.08900
H101        H  0.67413152  0.60987563  0.19967521     0.07900
N102        N  0.90289310  0.54373495  0.23046372    -0.35900
N103        N  0.90289735  0.52182253  0.26946604    -0.28100
C104        C  0.94633312  0.51506038  0.28258938    -0.03300
C105        C  0.97491697  0.53274981  0.24995182     0.05300
C106        C  0.94632656  0.55046330  0.21732500     0.03400
H107        H  0.95635870  0.49755007  0.31307815     0.08500
H108        H  0.95634716  0.56797812  0.18683973     0.07300
C109        C  0.64439732  0.33181708  0.63223530     0.80400
N110        N  0.66554884  0.36741103  0.65265897    -0.77900
C111        C  0.70114486  0.38858287  0.63226584     0.82900
N112        N  0.71354107  0.37611577  0.58991467    -0.77800
C113        C  0.69061055  0.34242678  0.56819699     0.83000
N114        N  0.65691297  0.31947976  0.58988303    -0.79500
C115        C  0.64605153  0.33034776  0.36685395     0.80400
N116        N  0.65817567  0.31833261  0.40943568    -0.77900
C117        C  0.69141937  0.34167173  0.43144919     0.82900
N118        N  0.71415176  0.37563738  0.40997659    -0.77800
C119        C  0.70223166  0.38788512  0.36744723     0.83000
N120        N  0.66720252  0.36611115  0.34656935    -0.79500
N121        N  0.56257941  0.25172521  0.31867030    -0.27100
N122        N  0.55214968  0.28974522  0.29709256    -0.34900
C123        C  0.58018266  0.32327120  0.31084726     0.01300
C124        C  0.60916037  0.30586197  0.34330692     0.07300
C125        C  0.59694456  0.26042648  0.34760620    -0.05800
H126        H  0.57937501  0.35785515  0.29827291     0.08000
H127        H  0.61304362  0.23518470  0.36885718     0.09200
Cu128      Cu  0.49998629  0.29422778  0.24997741     0.44200
Cu129      Cu  0.53306652  0.18890723  0.30256552     0.42000
Cu130      Cu  0.46675915  0.18893077  0.19749470     0.43900
N131        N  0.44781859  0.28979336  0.20286421    -0.34400
N132        N  0.43733879  0.25177028  0.18132603    -0.28700
C133        C  0.40298372  0.26049070  0.15238398    -0.04800
C134        C  0.39082539  0.30594447  0.15663741     0.07400
C135        C  0.41982623  0.32334549  0.18907630     0.01200
H136        H  0.38684889  0.23525046  0.13116470     0.08900
H137        H  0.42067384  0.35793850  0.20161676     0.07900
N138        N  0.48975103  0.13002318  0.23009721    -0.35900
N139        N  0.50999623  0.13001195  0.26998989    -0.28100
C140        C  0.51605988  0.08653523  0.28341223    -0.03300
C141        C  0.49985100  0.05787936  0.25003755     0.05300
C142        C  0.48365871  0.08655687  0.21666939     0.03400
H143        H  0.53228410  0.07650747  0.31458728     0.08500
H144        H  0.46744111  0.07655213  0.18548629     0.07300
N145        N  0.21806906  0.46638807  0.81533094    -0.27100
N146        N  0.25649606  0.48020657  0.79655153    -0.34900
C147        C  0.29112337  0.45497406  0.81261971     0.01300
C148        C  0.27374893  0.42443644  0.84362459     0.07300
C149        C  0.22735098  0.43265772  0.84468352    -0.05800
H150        H  0.32632117  0.45855835  0.80241980     0.08000
H151        H  0.20201430  0.41420891  0.86385175     0.09200
Cu152      Cu  0.26005455  0.53278228  0.74994399     0.44200
Cu153      Cu  0.15478207  0.49121552  0.79621703     0.42000
Cu154      Cu  0.15470458  0.57432971  0.70374052     0.43900
N155        N  0.25641575  0.58538707  0.70337321    -0.34400
N156        N  0.21796736  0.59920448  0.68462423    -0.28700
C157        C  0.22720916  0.63297352  0.65530504    -0.04800
C158        C  0.27360205  0.64122035  0.65635608     0.07400
C159        C  0.29101538  0.61065733  0.68731919     0.01200
H160        H  0.20184861  0.65143098  0.63616810     0.08900
H161        H  0.32622103  0.60708399  0.69750400     0.07900
N162        N  0.09646206  0.54747166  0.73309912    -0.35900
N163        N  0.09649169  0.51800993  0.76688102    -0.28100
C164        C  0.05317730  0.50828314  0.77809811    -0.03300
C165        C  0.02482900  0.53270369  0.75001149     0.05300
C166        C  0.05312720  0.55715463  0.72190814     0.03400
H167        H  0.04314502  0.48498508  0.80452715     0.08500
H168        H  0.04304706  0.58044752  0.69548993     0.07300
N169        N  0.43534601  0.25167223  0.81687741    -0.27100
N170        N  0.44792869  0.28999065  0.79702917    -0.34900
C171        C  0.42179321  0.32432559  0.81230207     0.01300
C172        C  0.39189802  0.30697192  0.84391838     0.07300
C173        C  0.40147609  0.26083810  0.84615061    -0.05800
H174        H  0.42436872  0.35932913  0.80117953     0.08000
H175        H  0.38385738  0.23553712  0.86611076     0.09200
Cu176      Cu  0.50010396  0.29384275  0.75003788     0.44200
Cu177      Cu  0.46176961  0.18836020  0.79890117     0.42000
Cu178      Cu  0.53827228  0.18832740  0.70103536     0.43900
N179        N  0.55222545  0.28993927  0.70299317    -0.34400
N180        N  0.56473016  0.25162927  0.68308357    -0.28700
C181        C  0.59856866  0.26078676  0.65377130    -0.04800
C182        C  0.60820684  0.30690394  0.65604347     0.07400
C183        C  0.57838137  0.32425603  0.68772162     0.01200
H184        H  0.61612650  0.23548843  0.63375755     0.08900
H185        H  0.57586410  0.35924887  0.69888503     0.07900
N186        N  0.51294184  0.12969233  0.73170006    -0.35900
N187        N  0.48712923  0.12970580  0.76829603    -0.28100
C188        C  0.47889997  0.08630703  0.78058755    -0.03300
C189        C  0.50004328  0.05780019  0.75003260     0.05300
C190        C  0.52118043  0.08628439  0.71944961     0.03400
H191        H  0.45839133  0.07628025  0.80918586     0.08500
H192        H  0.54167744  0.07623667  0.69085124     0.07300
C193        C  0.29778668  0.38800187  0.13245603     0.80400
N194        N  0.33280907  0.36622013  0.15334463    -0.77900
C195        C  0.35395317  0.33044636  0.13307563     0.82900
N196        N  0.34182794  0.31842281  0.09050040    -0.77800
C197        C  0.30859338  0.34176839  0.06847379     0.83000
N198        N  0.28586774  0.37574985  0.08992913    -0.79500
C199        C  0.35569740  0.33189063  0.86771104     0.80400
N200        N  0.33451034  0.36745754  0.84726181    -0.77900
C201        C  0.29887750  0.38859412  0.86763429     0.82900
N202        N  0.28648424  0.37612620  0.90998669    -0.77800
C203        C  0.30944820  0.34247173  0.93172876     0.83000
N204        N  0.34318045  0.31955400  0.91006549    -0.79500
N205        N  0.21904706  0.59491861  0.31885203    -0.27100
N206        N  0.25729620  0.58380008  0.29803993    -0.34900
C207        C  0.29106760  0.61110120  0.31251504     0.01300
C208        C  0.27348317  0.64040596  0.34451886     0.07300
C209        C  0.22777479  0.62908894  0.34794131    -0.05800
H210        H  0.32579502  0.60990265  0.30037069     0.08000
H211        H  0.20234495  0.64590144  0.36841142     0.09200
Cu212      Cu  0.26170209  0.53279620  0.25002975     0.44200
Cu213      Cu  0.15599073  0.56703307  0.30152995     0.42000
Cu214      Cu  0.15602661  0.49861429  0.19840190     0.43900
N215        N  0.25732549  0.48180402  0.20200451    -0.34400
N216        N  0.21909377  0.47071575  0.18114104    -0.28700
C217        C  0.22783664  0.43655061  0.15205152    -0.04800
C218        C  0.27353497  0.42520338  0.15552743     0.07400
C219        C  0.29109951  0.45448614  0.18756291     0.01200
H220        H  0.20242074  0.41976099  0.13154389     0.08900
H221        H  0.32581496  0.45566069  0.19974865     0.07900
N222        N  0.09711901  0.52189883  0.23042814    -0.35900
N223        N  0.09710858  0.54369155  0.26949198    -0.28100
C224        C  0.05367128  0.55037359  0.28264055    -0.03300
C225        C  0.02509247  0.53275823  0.24995790     0.05300
C226        C  0.05368757  0.51517194  0.21727643     0.03400
H227        H  0.04364003  0.56779143  0.31317413     0.08500
H228        H  0.04367285  0.49774880  0.18673954     0.07300
C229        C  0.35551185  0.73380220  0.63232690     0.80400
N230        N  0.34298521  0.74615891  0.58997813    -0.77900
C231        C  0.30925184  0.72325189  0.56830351     0.82900
N232        N  0.28629455  0.68958885  0.59003118    -0.77800
C233        C  0.29869637  0.67710157  0.63237804     0.83000
N234        N  0.33433163  0.69822682  0.65275984    -0.79500
C235        C  0.35393740  0.73511578  0.36700321     0.80400
N236        N  0.33278708  0.69934727  0.34673367    -0.78700
C237        C  0.29773079  0.67760611  0.36759657     0.82900
N238        N  0.28577796  0.68989558  0.41010226    -0.77800
C239        C  0.30850456  0.72387486  0.43156075     0.83000
N240        N  0.34177819  0.74717785  0.40955694    -0.79500
C241        C  0.30417126  0.72833373  0.52032906    -0.13000
C242        C  0.30399958  0.72859059  0.47962892    -0.14600
C243        C  0.30413555  0.33709269  0.02039736    -0.13000
C244        C  0.30434137  0.33737620  0.97969783    -0.14600
C245        C  0.69588639  0.33701195  0.47952786    -0.13000
C246        C  0.69570183  0.33731819  0.52022772    -0.14600
C247        C  0.69582484  0.72855035  0.02039762    -0.13000
C248        C  0.69569481  0.72826670  0.97969689    -0.14600
loop_ 
_geom_bond_atom_site_label_1 
_geom_bond_atom_site_label_2 
_geom_bond_distance 
_geom_bond_site_symmetry_2 
_ccdc_geom_bond_type 
N1            N2   1.323       .  A
N1            C5   1.349       .  A
N1           Cu9   2.092       .  S
N2            C3   1.346       .  A
N2           Cu8   2.078       .  S
C3            C4   1.383       .  A
C3            H6   1.082       .  S
C4            C5   1.387       .  A
C4          C235   1.476       .  S
C5            H7   1.082       .  S
Cu8          N11   2.078       .  S
Cu9          N19   2.093       .  S
Cu10         N12   2.093       .  S
Cu10         N18   2.094       .  S
N11          N12   1.323       .  A
N11          C15   1.346       .  A
N12          C13   1.349       .  A
C13          C14   1.387       .  A
C13          H16   1.082       .  S
C14          C15   1.383       .  A
C14          C77   1.476       .  S
C15          H17   1.082       .  S
N18          N19   1.325       .  A
N18          C22   1.349       .  A
N19          C20   1.349       .  A
C20          C21   1.384   1_565  A
C20          H23   1.082       .  S
C21          C22   1.384   1_545  A
C21         C141   1.477       .  S
C22          H24   1.082       .  S
N25          N26   1.322       .  A
N25          C29   1.347       .  A
N25         Cu33   2.074       .  S
N26          C27   1.345       .  A
N26         Cu32   2.076       .  S
C27          C28   1.382       .  A
C27          H30   1.082       .  S
C28          C29   1.383       .  A
C28          C79   1.469       .  S
C29          H31   1.082       .  S
Cu32         N35   2.076       .  S
Cu33         N43   2.074       .  S
Cu34         N36   2.074       .  S
Cu34         N42   2.074       .  S
N35          N36   1.322       .  A
N35          C39   1.345       .  A
N36          C37   1.347       .  A
C37          C38   1.383       .  A
C37          H40   1.082       .  S
C38          C39   1.382       .  A
C38         C111   1.469       .  S
C39          H41   1.082       .  S
N42          N43   1.324       .  A
N42          C46   1.345       .  A
N43          C44   1.345       .  A
C44          C45   1.379       .  A
C44          H47   1.082       .  S
C45          C46   1.379       .  A
C45         C165   1.460   1_655  S
C46          H48   1.082       .  S
N49          N50   1.322       .  A
N49          C53   1.348       .  A
N49         Cu57   2.083       .  S
N50          C51   1.345       .  A
N50         Cu56   2.075       .  S
C51          C52   1.382       .  A
C51          H54   1.082       .  S
C52          C53   1.384       .  A
C52          C81   1.471       .  S
C53          H55   1.082       .  S
Cu56         N59   2.075       .  S
Cu57         N67   2.084       .  S
Cu58         N60   2.083       .  S
Cu58         N66   2.084       .  S
N59          N60   1.322       .  A
N59          C63   1.345       .  A
N60          C61   1.348       .  A
C61          C62   1.385       .  A
C61          H64   1.082       .  S
C62          C63   1.382       .  A
C62         C229   1.471       .  S
C63          H65   1.082       .  S
N66          N67   1.325       .  A
N66          C70   1.347       .  A
N67          C68   1.347       .  A
C68          C69   1.381   1_565  A
C68          H71   1.082       .  S
C69          C70   1.381   1_545  A
C69         C189   1.469       .  S
C70          H72   1.082       .  S
C73          N74   1.359       .  A
C73          N78   1.360       .  A
C73          C98   1.473       .  S
N74          C75   1.359       .  A
C75          N76   1.360       .  A
C75         C247   1.440       .  S
N76          C77   1.360       .  A
C77          N78   1.360       .  A
C79          N80   1.358       .  A
C79          N84   1.359       .  A
N80          C81   1.358       .  A
C81          N82   1.359       .  A
N82          C83   1.359       .  A
C83          N84   1.359       .  A
C83         C248   1.440       .  S
N85          N86   1.322       .  A
N85          C89   1.348       .  A
N85         Cu93   2.088       .  S
N86          C87   1.345       .  A
N86         Cu92   2.071       .  S
C87          C88   1.382       .  A
C87          H90   1.082       .  S
C88          C89   1.386       .  A
C88         C119   1.473       .  S
C89          H91   1.082       .  S
Cu92         N95   2.071       .  S
Cu93        N103   2.088       .  S
Cu94         N96   2.088       .  S
Cu94        N102   2.088       .  S
N95          N96   1.322       .  A
N95          C99   1.345       .  A
N96          C97   1.348       .  A
C97          C98   1.386       .  A
C97         H100   1.082       .  S
C98          C99   1.382       .  A
C99         H101   1.082       .  S
N102        N103   1.325       .  A
N102        C106   1.348       .  A
N103        C104   1.348       .  A
C104        C105   1.383       .  A
C104        H107   1.082       .  S
C105        C106   1.383       .  A
C105        C225   1.473   1_655  S
C106        H108   1.082       .  S
C109        N110   1.358       .  A
C109        N114   1.359       .  A
C109        C182   1.471       .  S
N110        C111   1.358       .  A
C111        N112   1.359       .  A
N112        C113   1.359       .  A
C113        N114   1.359       .  A
C113        C246   1.440       .  S
C115        N116   1.360       .  A
C115        N120   1.360       .  A
C115        C124   1.476       .  S
N116        C117   1.360       .  A
C117        N118   1.359       .  A
C117        C245   1.440       .  S
N118        C119   1.359       .  A
C119        N120   1.360       .  A
N121        N122   1.323       .  A
N121        C125   1.349       .  A
N121       Cu129   2.093       .  S
N122        C123   1.346       .  A
N122       Cu128   2.078       .  S
C123        C124   1.383       .  A
C123        H126   1.082       .  S
C124        C125   1.387       .  A
C125        H127   1.082       .  S
Cu128       N131   2.078       .  S
Cu129       N139   2.093       .  S
Cu130       N132   2.092       .  S
Cu130       N138   2.093       .  S
N131        N132   1.323       .  A
N131        C135   1.346       .  A
N132        C133   1.349       .  A
C133        C134   1.387       .  A
C133        H136   1.082       .  S
C134        C135   1.383       .  A
C134        C195   1.476       .  S
C135        H137   1.082       .  S
N138        N139   1.325       .  A
N138        C142   1.349       .  A
N139        C140   1.349       .  A
C140        C141   1.384       .  A
C140        H143   1.082       .  S
C141        C142   1.384       .  A
C142        H144   1.082       .  S
N145        N146   1.322       .  A
N145        C149   1.347       .  A
N145       Cu153   2.074       .  S
N146        C147   1.345       .  A
N146       Cu152   2.075       .  S
C147        C148   1.382       .  A
C147        H150   1.082       .  S
C148        C149   1.383       .  A
C148        C201   1.469       .  S
C149        H151   1.082       .  S
Cu152       N155   2.075       .  S
Cu153       N163   2.075       .  S
Cu154       N156   2.074       .  S
Cu154       N162   2.075       .  S
N155        N156   1.322       .  A
N155        C159   1.345       .  A
N156        C157   1.347       .  A
C157        C158   1.383       .  A
C157        H160   1.082       .  S
C158        C159   1.382       .  A
C158        C233   1.469       .  S
C159        H161   1.082       .  S
N162        N163   1.324       .  A
N162        C166   1.345       .  A
N163        C164   1.345       .  A
C164        C165   1.379       .  A
C164        H167   1.082       .  S
C165        C166   1.379       .  A
C166        H168   1.082       .  S
N169        N170   1.322       .  A
N169        C173   1.348       .  A
N169       Cu177   2.083       .  S
N170        C171   1.345       .  A
N170       Cu176   2.075       .  S
C171        C172   1.382       .  A
C171        H174   1.082       .  S
C172        C173   1.385       .  A
C172        C199   1.471       .  S
C173        H175   1.082       .  S
Cu176       N179   2.075       .  S
Cu177       N187   2.084       .  S
Cu178       N180   2.083       .  S
Cu178       N186   2.084       .  S
N179        N180   1.322       .  A
N179        C183   1.345       .  A
N180        C181   1.348       .  A
C181        C182   1.385       .  A
C181        H184   1.082       .  S
C182        C183   1.382       .  A
C183        H185   1.082       .  S
N186        N187   1.325       .  A
N186        C190   1.347       .  A
N187        C188   1.347       .  A
C188        C189   1.381       .  A
C188        H191   1.082       .  S
C189        C190   1.381       .  A
C190        H192   1.082       .  S
C193        N194   1.360       .  A
C193        N198   1.359       .  A
C193        C218   1.473       .  S
N194        C195   1.360       .  A
C195        N196   1.360       .  A
N196        C197   1.360       .  A
C197        N198   1.359       .  A
C197        C243   1.440       .  S
C199        N200   1.358       .  A
C199        N204   1.359       .  A
N200        C201   1.358       .  A
C201        N202   1.359       .  A
N202        C203   1.359       .  A
C203        N204   1.359       .  A
C203        C244   1.440       .  S
N205        N206   1.322       .  A
N205        C209   1.348       .  A
N205       Cu213   2.088       .  S
N206        C207   1.345       .  A
N206       Cu212   2.071       .  S
C207        C208   1.382       .  A
C207        H210   1.082       .  S
C208        C209   1.386       .  A
C208        C237   1.473       .  S
C209        H211   1.082       .  S
Cu212       N215   2.071       .  S
Cu213       N223   2.088       .  S
Cu214       N216   2.088       .  S
Cu214       N222   2.088       .  S
N215        N216   1.322       .  A
N215        C219   1.345       .  A
N216        C217   1.348       .  A
C217        C218   1.386       .  A
C217        H220   1.082       .  S
C218        C219   1.382       .  A
C219        H221   1.082       .  S
N222        N223   1.325       .  A
N222        C226   1.348       .  A
N223        C224   1.348       .  A
C224        C225   1.383       .  A
C224        H227   1.082       .  S
C225        C226   1.383       .  A
C226        H228   1.082       .  S
C229        N230   1.359       .  A
C229        N234   1.358       .  A
N230        C231   1.359       .  A
C231        N232   1.359       .  A
C231        C241   1.440       .  S
N232        C233   1.359       .  A
C233        N234   1.358       .  A
C235        N236   1.360       .  A
C235        N240   1.360       .  A
N236        C237   1.360       .  A
C237        N238   1.359       .  A
N238        C239   1.359       .  A
C239        N240   1.360       .  A
C239        C242   1.440       .  S
C241        C242   1.208       .  T
C243        C244   1.208   1_554  T
C245        C246   1.208       .  T
C247        C248   1.208   1_554  T
