geometry optimzed in LAMMPS
_audit_creation_date              2020-11-30 
_audit_creation_method            'lammps2cif' 
_symmetry_space_group_name_H-M    'P1' 
_symmetry_Int_Tables_number       1 
_symmetry_cell_setting            triclinic 
loop_ 
_symmetry_equiv_pos_as_xyz 
  x,y,z 
_cell_length_a                    23.16225865 
_cell_length_b                    21.978461596919924 
_cell_length_c                    22.270489511265204 
_cell_angle_alpha                 87.47223756672123 
_cell_angle_beta                  104.19976125225892 
_cell_angle_gamma                 90.94969764537281 
loop_ 
_atom_site_label 
_atom_site_type_symbol 
_atom_site_fract_x 
_atom_site_fract_y 
_atom_site_fract_z 
_atom_site_charge 
O1          O  0.96273419  0.65274501  0.96464529    -0.80400
O2          O  0.99131294  0.35978542  0.99982172    -0.65100
O3          O  0.98217067  0.53381188  0.01346987    -1.11700
C4          C  0.18462983  0.52802011  0.03522800     1.06500
O5          O  0.08539438  0.34512378  0.05429626    -0.78300
O6          O  0.08159135  0.44502162  0.12168765    -0.65900
Ni7        Ni  0.92266858  0.57489921  0.95112367     1.34900
C8          C  0.07060682  0.49994189  0.13062784     0.85200
O9          O  0.90535899  0.43686564  0.01237846    -0.78800
O10         O  0.87408262  0.50321800  0.93531268    -0.89100
C11         C  0.03486994  0.32504191  0.02540203     0.84800
O12         O  0.96613420  0.55273540  0.89324091    -0.67300
O13         O  0.17475185  0.49392843  0.07903550    -0.86600
C14         C  0.97444198  0.49779290  0.88117948     0.85600
C15         C  0.86368059  0.46861899  0.97847999     1.07200
H16         H  0.07295218  0.45239212  0.96100272     0.39000
O17         O  0.06631621  0.46191800  0.00065821    -1.09300
O18         O  0.08449541  0.54416725  0.09769925    -0.65900
Ni19       Ni  0.06245445  0.54878254  0.00781849     1.26300
O20         O  0.96447492  0.45240955  0.91534256    -0.66200
O21         O  0.14256983  0.55861392  0.00050873    -0.78400
C22         C  0.01427344  0.67140967  0.99276956     0.85000
O23         O  0.05774946  0.63546393  0.01389979    -0.65600
Ni24       Ni  0.12580533  0.42226626  0.06494409     1.27400
Ni25       Ni  0.98581410  0.44690040  0.00556648     1.26100
H26         H  0.97561973  0.54310176  0.05329467     0.39500
O27         O  0.95411809  0.35218397  0.43523294    -0.80400
O28         O  0.96458367  0.64243791  0.45338648    -0.65100
O29         O  0.99726655  0.47340353  0.44205080    -1.11700
C30         C  0.04517483  0.47439001  0.65527748     1.06500
O31         O  0.03166284  0.66041889  0.54167106    -0.78300
O32         O  0.10882731  0.56761395  0.53893255    -0.65900
Ni33       Ni  0.93636252  0.42784075  0.38747757     1.34900
C34         C  0.12658767  0.51426542  0.53274850     0.85200
O35         O  0.97507981  0.57355922  0.36112955    -0.78800
O36         O  0.91332452  0.49776379  0.33266337    -0.89100
C37         C  0.99331418  0.67849397  0.49312291     0.84800
O38         O  0.87861500  0.44606140  0.43155381    -0.67300
O39         O  0.07969909  0.51421348  0.64017920    -0.86600
C40         C  0.86060793  0.49903289  0.43826717     0.85600
C41         C  0.94995586  0.53696611  0.32050447     1.07200
H42         H  0.95387098  0.54370462  0.54589735     0.39000
O43         O  0.99053455  0.53967837  0.53308972    -1.09300
O44         O  0.09460576  0.46701681  0.53834713    -0.65900
Ni45       Ni  0.00825548  0.45520918  0.52835180     1.26300
O46         O  0.89286788  0.54658872  0.43502138    -0.66200
O47         O  0.01429609  0.44075813  0.61468467    -0.78400
C48         C  0.99198882  0.33433250  0.48432944     0.85000
O49         O  0.02305424  0.37084244  0.52200926    -0.65600
Ni50       Ni  0.05316011  0.58428461  0.58669346     1.27400
Ni51       Ni  0.97953223  0.55820075  0.44677418     1.26100
H52         H  0.03411968  0.46975030  0.42952990     0.39500
O53         O  0.47812375  0.34161794  0.95176842    -0.80400
O54         O  0.50451533  0.63307066  0.96205638    -0.65100
O55         O  0.52795402  0.46039240  0.96021421    -1.11700
C56         C  0.55180811  0.47051581  0.16891636     1.06500
O57         O  0.56135948  0.65207303  0.05587983    -0.78300
O58         O  0.63174343  0.55269023  0.05863757    -0.65900
Ni59       Ni  0.46598988  0.41774204  0.90398434     1.34900
C60         C  0.64584574  0.49796789  0.05265947     0.85200
O61         O  0.51924768  0.55758814  0.87670316    -0.78800
O62         O  0.44981835  0.48863367  0.85004145    -0.89100
C63         C  0.52935899  0.66974801  0.00310784     0.84800
O64         O  0.41122836  0.44223775  0.94908184    -0.67300
O65         O  0.59271505  0.50512668  0.15806045    -0.86600
C66         C  0.39804528  0.49723925  0.95471139     0.85600
C67         C  0.49174102  0.52056562  0.83783514     1.07200
H68         H  0.47697726  0.54050409  0.05354939     0.39000
O69         O  0.51522528  0.53268926  0.04544802    -1.09300
O70         O  0.61468412  0.45265657  0.06449787    -0.65900
Ni71       Ni  0.52839023  0.44600188  0.04484758     1.26300
O72         O  0.42911695  0.54182176  0.94109218    -0.66200
O73         O  0.52507835  0.43483248  0.12830608    -0.78400
C74         C  0.51106231  0.32394298  0.00405066     0.85000
O75         O  0.53979794  0.36049059  0.04312674    -0.65600
Ni76       Ni  0.57550901  0.57568540  0.10303649     1.27400
Ni77       Ni  0.51553839  0.54732514  0.96062678     1.26100
H78         H  0.56592293  0.45197424  0.95171440     0.39500
O79         O  0.44296773  0.34371004  0.44246598    -0.80400
O80         O  0.45756300  0.63316995  0.47607722    -0.65100
O81         O  0.48316281  0.46805287  0.43785672    -1.11700
C82         C  0.58871458  0.46019075  0.63702641     1.06500
O83         O  0.54402798  0.65031868  0.54409795    -0.78300
O84         O  0.61076897  0.56457601  0.50641955    -0.65900
Ni85       Ni  0.41397263  0.42048105  0.40004712     1.34900
C86         C  0.62727106  0.51361892  0.49143710     0.85200
O87         O  0.43250263  0.57490227  0.37219575    -0.78800
O88         O  0.38056415  0.49262613  0.35498189    -0.89100
C89         C  0.49544967  0.66877084  0.50788779     0.84800
O90         O  0.37227434  0.43535196  0.46230563    -0.67300
O91         O  0.61694335  0.49968284  0.61282169    -0.86600
C92         C  0.35883958  0.48732725  0.47789626     0.85600
C93         C  0.41475241  0.53127814  0.33758219     1.07200
H94         H  0.48029249  0.52519664  0.56566464     0.39000
O95         O  0.50763021  0.52609410  0.53908712    -1.09300
O96         O  0.60018312  0.46363918  0.49995098    -0.65900
Ni97       Ni  0.52345278  0.44354197  0.51922935     1.26300
O98         O  0.39035620  0.53494609  0.47314395    -0.66200
O99         O  0.56004222  0.42008580  0.60302778    -0.78400
C100        C  0.49381360  0.32568834  0.47442734     0.85000
O101        O  0.53515617  0.36246256  0.49777933    -0.65600
Ni102      Ni  0.57777390  0.57253113  0.57632166     1.27400
Ni103      Ni  0.46839537  0.55140392  0.45639915     1.26100
H104        H  0.51078951  0.46813506  0.41165096     0.39500
N105        N  0.99105144  0.93234292  0.06638548    -0.36100
N106        N  0.98417079  0.93830776  0.93177223    -0.56700
N107        N  0.98231660  0.07058953  0.93150209    -0.36100
N108        N  0.98511774  0.06497998  0.06478978    -0.56700
C109        C  0.98116794  0.87278560  0.05317959     0.27500
C110        C  0.98221003  0.93992334  0.12376656     0.27500
C111        C  0.97166882  0.06275138  0.86948552     0.27500
C112        C  0.97177832  0.12980886  0.93979752     0.27500
C113        C  0.99304836  0.87771129  0.94366766     0.36100
C114        C  0.98885823  0.95037148  0.87281592     0.36100
C115        C  0.99345566  0.05336513  0.12665859     0.36100
C116        C  0.98977813  0.12613450  0.05614899     0.36100
C117        C  0.96701593  0.84189715  0.10348105    -0.21400
C118        C  0.96781474  0.88405158  0.14786600    -0.21400
C119        C  0.95484312  0.11800207  0.83813268    -0.21400
C120        C  0.95507054  0.16013633  0.88223311    -0.21400
C121        C  0.00297227  0.85118969  0.89171610    -0.22500
C122        C  0.00063264  0.89704532  0.84720921    -0.22500
C123        C  0.00293350  0.10745702  0.15738033    -0.22500
C124        C  0.00019878  0.15332206  0.11300684    -0.22500
C125        C  0.98703881  0.84486492  0.99832896    -0.17800
C126        C  0.98852798  0.99538549  0.15571637    -0.17800
C127        C  0.98071604  0.15837132  0.99762136    -0.17800
C128        C  0.97933169  0.00798459  0.84042566    -0.17800
H129        H  0.95752056  0.79376779  0.10806173     0.15100
H130        H  0.95882188  0.87455512  0.19282490     0.15100
H131        H  0.94396179  0.12726582  0.78854573     0.15100
H132        H  0.94470521  0.20795224  0.87272227     0.15100
H133        H  0.01047563  0.80357036  0.88599571     0.13400
H134        H  0.00648502  0.89153614  0.80107119     0.13400
H135        H  0.01011286  0.11351528  0.20662057     0.13400
H136        H  0.00422327  0.20131892  0.12208472     0.13400
H137        H  0.00808564  0.96466599  0.03997659     0.26600
H138        H  0.00164939  0.03916410  0.96633888     0.26600
N139        N  0.99085758  0.94344241  0.57056788    -0.36100
N140        N  0.97417634  0.07331408  0.55672841    -0.56700
N141        N  0.98158198  0.06883239  0.42548501    -0.36100
N142        N  0.99198113  0.93816188  0.43771140    -0.56700
C143        C  0.97628639  0.95363125  0.62481764     0.27500
C144        C  0.98681882  0.88270375  0.56237512     0.27500
C145        C  0.96394626  0.12704638  0.42714266     0.27500
C146        C  0.97361412  0.05538602  0.36487405     0.27500
C147        C  0.97730901  0.06704716  0.61840884     0.36100
C148        C  0.97376641  0.13380266  0.54215804     0.36100
C149        C  0.00880198  0.88068144  0.45746095     0.36100
C150        C  0.00269290  0.94656929  0.38076009     0.36100
C151        C  0.96314689  0.89856644  0.65136550    -0.21400
C152        C  0.96975884  0.85395751  0.61214964    -0.21400
C153        C  0.94562640  0.15110010  0.36668554    -0.21400
C154        C  0.95146524  0.10598095  0.32769084    -0.21400
C155        C  0.97770002  0.12384118  0.64292281    -0.22500
C156        C  0.97509575  0.16595828  0.59486145    -0.22500
C157        C  0.03060023  0.85269973  0.41284014    -0.22500
C158        C  0.02603681  0.89416960  0.36403865    -0.22500
C159        C  0.97657397  0.01084404  0.65220831    -0.17800
C160        C  0.00130793  0.85180735  0.51332003    -0.17800
C161        C  0.98852534  0.99975431  0.34233642    -0.17800
C162        C  0.96716596  0.16046788  0.48132682    -0.17800
H163        H  0.94971369  0.89122403  0.69433366     0.15100
H164        H  0.96283465  0.80567135  0.61962322     0.15100
H165        H  0.92989252  0.19665133  0.35167361     0.15100
H166        H  0.94087376  0.11018424  0.27760068     0.15100
H167        H  0.97861929  0.13396539  0.69024258     0.13400
H168        H  0.97291782  0.21470051  0.59856484     0.13400
H169        H  0.04776716  0.80699648  0.41478334     0.13400
H170        H  0.03859103  0.88665115  0.32123644     0.13400
H171        H  0.00894576  0.97476414  0.54399700     0.26600
H172        H  0.00356960  0.04242107  0.46374401     0.26600
N173        N  0.51059917  0.93257967  0.94601247    -0.36100
N174        N  0.51852274  0.93122392  0.08155331    -0.56700
N175        N  0.49415874  0.06066249  0.07262770    -0.36100
N176        N  0.49314036  0.06327266  0.93922069    -0.56700
C177        C  0.53255905  0.87602152  0.96351395     0.27500
C178        C  0.51810454  0.94599554  0.88821239     0.27500
C179        C  0.50136750  0.05074066  0.13464828     0.27500
C180        C  0.49163445  0.12160459  0.06036551     0.27500
C181        C  0.52209596  0.87081147  0.07366494     0.36100
C182        C  0.50984450  0.93720420  0.13915560     0.36100
C183        C  0.48754385  0.05500773  0.87804304     0.36100
C184        C  0.47938960  0.12211820  0.94436085     0.36100
C185        C  0.55359189  0.85301896  0.91582985    -0.21400
C186        C  0.54407834  0.89682866  0.86835093    -0.21400
C187        C  0.50257266  0.10628551  0.16206886    -0.21400
C188        C  0.49609620  0.15078252  0.11544111    -0.21400
C189        C  0.51634097  0.83845091  0.12691827    -0.22500
C190        C  0.50867487  0.88032865  0.16814329    -0.22500
C191        C  0.47070985  0.10892722  0.84427912    -0.22500
C192        C  0.46586556  0.15133789  0.88600592    -0.22500
C193        C  0.53279838  0.84382289  0.02053428    -0.17800
C194        C  0.50149572  0.00091557  0.85245326    -0.17800
C195        C  0.48216693  0.15153293  0.00065499    -0.17800
C196        C  0.50446036  0.99310662  0.16690060    -0.17800
H197        H  0.57422788  0.80932453  0.91523469     0.15100
H198        H  0.55592623  0.89321173  0.82456920     0.15100
H199        H  0.50731522  0.11412882  0.21063067     0.15100
H200        H  0.49396104  0.19911759  0.12177035     0.15100
H201        H  0.51710386  0.78955692  0.13529319     0.13400
H202        H  0.50247964  0.86992441  0.21406059     0.13400
H203        H  0.46359119  0.11725852  0.79480061     0.13400
H204        H  0.45443057  0.19864269  0.87431326     0.13400
H205        H  0.48685885  0.95789862  0.96992477     0.26600
H206        H  0.48636264  0.02788371  0.03970535     0.26600
N207        N  0.49067429  0.06036178  0.43506481    -0.36100
N208        N  0.49933918  0.92890128  0.44708874    -0.56700
N209        N  0.50458406  0.93486068  0.58141045    -0.36100
N210        N  0.48747043  0.06528513  0.56722933    -0.56700
C211        C  0.48305018  0.04713020  0.37458209     0.27500
C212        C  0.47251692  0.11841606  0.43656538     0.27500
C213        C  0.50208187  0.87384557  0.57526501     0.27500
C214        C  0.49735960  0.94581238  0.63864938     0.27500
C215        C  0.50782546  0.93671266  0.38904324     0.36100
C216        C  0.51242869  0.87011263  0.46534691     0.36100
C217        C  0.48465263  0.12561386  0.55167083     0.36100
C218        C  0.49500085  0.05965203  0.62962417     0.36100
C219        C  0.46079868  0.09777778  0.33739066    -0.21400
C220        C  0.45414434  0.14259144  0.37629152    -0.21400
C221        C  0.49378540  0.84559175  0.62958404    -0.21400
C222        C  0.49095053  0.89081679  0.66945212    -0.21400
C223        C  0.52540940  0.88239428  0.37002617    -0.22500
C224        C  0.52839339  0.84034683  0.41816456    -0.22500
C225        C  0.48943905  0.15849302  0.60446361    -0.22500
C226        C  0.49624599  0.11685765  0.65368199    -0.22500
C227        C  0.49745566  0.99144609  0.35194601    -0.19800
C228        C  0.47452561  0.15163618  0.49037740    -0.17800
C229        C  0.49797536  0.00367599  0.66477887    -0.17800
C230        C  0.51002676  0.84230644  0.52361085    -0.17800
H231        H  0.44986760  0.10194003  0.28732277     0.15100
H232        H  0.43770977  0.18802494  0.36163398     0.15100
H233        H  0.49040846  0.79723186  0.63974512     0.15100
H234        H  0.48474313  0.88382024  0.71586864     0.15100
H235        H  0.53548106  0.87396112  0.32623525     0.13400
H236        H  0.54163905  0.79333508  0.41846397     0.13400
H237        H  0.48788838  0.20744668  0.60729312     0.13400
H238        H  0.50110501  0.12755610  0.70160003     0.13400
H239        H  0.51263379  0.03378183  0.47313380     0.26600
H240        H  0.51632438  0.96633570  0.55052633     0.26600
C241        C  0.49988113  0.00482355  0.73119374    -0.12800
C242        C  0.50116588  0.00288153  0.78628744    -0.14400
C243        C  0.50225130  0.99132922  0.23245143    -0.12800
C244        C  0.50008742  0.99047399  0.28665407    -0.14400
C245        C  0.97539203  0.01154809  0.71817073    -0.12800
C246        C  0.97645525  0.01076118  0.77337624    -0.14400
C247        C  0.98799564  0.99375056  0.22173794    -0.12800
C248        C  0.98808391  0.99643075  0.27636542    -0.14400
C249        C  0.50557985  0.25964934  0.48607854    -0.16000
C250        C  0.46163127  0.21799249  0.48060371    -0.31100
H251        H  0.55157215  0.24483565  0.50164606     0.13100
H252        H  0.41535170  0.23194316  0.46602221     0.13600
C253        C  0.48309367  0.73473228  0.50059832    -0.16000
C254        C  0.52023361  0.77562493  0.53334908    -0.31100
H255        H  0.44383357  0.75043605  0.46604863     0.13100
H256        H  0.55819003  0.76040513  0.56984401     0.13600
C257        C  0.51678978  0.25802445  0.01966014    -0.16000
C258        C  0.47334563  0.21867673  0.99493642    -0.31100
H259        H  0.55758787  0.24137266  0.05106014     0.13100
H260        H  0.43266248  0.23587233  0.96371912     0.13600
C261        C  0.54852790  0.77786129  0.02783679    -0.16000
C262        C  0.51937322  0.73581656  0.98929402    -0.31100
H263        H  0.58108728  0.76305809  0.06972339     0.13100
H264        H  0.48560565  0.75013330  0.94816570     0.13600
C265        C  0.53195694  0.43218539  0.71464125    -0.12900
C266        C  0.57134449  0.47241029  0.69406161     0.09300
C267        C  0.58452632  0.52904995  0.72118146    -0.12900
C268        C  0.55695966  0.54597929  0.76676989    -0.12900
C269        C  0.51570510  0.50662513  0.78532997     0.09300
C270        C  0.50393806  0.44939406  0.75946792    -0.12900
H271        H  0.52102484  0.38824058  0.69443531     0.13300
H272        H  0.61431191  0.56112938  0.70559829     0.13300
H273        H  0.56762218  0.58982058  0.78726781     0.13300
H274        H  0.47378317  0.41740848  0.77458129     0.13300
C275        C  0.48103777  0.44023566  0.23214184    -0.12900
C276        C  0.52645087  0.47957629  0.22192246     0.09300
C277        C  0.53695428  0.53445678  0.25261275    -0.12900
C278        C  0.49985978  0.55167553  0.28939011    -0.12900
C279        C  0.45204639  0.51399922  0.29649386     0.09300
C280        C  0.44400939  0.45740033  0.26897290    -0.12900
H281        H  0.47202362  0.39757890  0.20891418     0.13300
H282        H  0.57128978  0.56585255  0.24509581     0.13300
H283        H  0.50810028  0.59498924  0.31144928     0.13300
H284        H  0.40861242  0.42678100  0.27514637     0.13300
C285        C  0.95842439  0.22756542  0.47178104    -0.16000
C286        C  0.00009775  0.26817876  0.49811676    -0.31100
H287        H  0.91800157  0.24359555  0.43930959     0.13100
H288        H  0.04056269  0.25246586  0.53077360     0.13600
C289        C  0.98225851  0.74447791  0.48234222    -0.16000
C290        C  0.01096772  0.78503285  0.52301175    -0.31100
H291        H  0.95037060  0.76023468  0.44034473     0.13100
H292        H  0.04068981  0.76917552  0.56639867     0.13600
C293        C  0.76485409  0.45162223  0.45189730    -0.12900
C294        C  0.79938417  0.50446917  0.44830589     0.09300
C295        C  0.77438807  0.56119880  0.45401355    -0.12900
C296        C  0.71720309  0.56460870  0.46488020    -0.12900
C297        C  0.68355816  0.51138623  0.47023495     0.09300
C298        C  0.70795306  0.45502400  0.46257370    -0.12900
H299        H  0.78215445  0.40702917  0.44742632     0.13300
H300        H  0.79932308  0.60286852  0.45104292     0.13300
H301        H  0.70006645  0.60889563  0.47083498     0.13300
H302        H  0.68385038  0.41304760  0.46680536     0.13300
C303        C  0.22500003  0.55757134  0.52001580    -0.12900
C304        C  0.18716089  0.50685992  0.52129987     0.09300
C305        C  0.20826817  0.44914047  0.51225286    -0.12900
C306        C  0.26477167  0.44252606  0.50069160    -0.12900
C307        C  0.30205552  0.49341441  0.49795308     0.09300
C308        C  0.28154812  0.55094710  0.50860521    -0.12900
H309        H  0.21071778  0.60274793  0.52725527     0.13300
H310        H  0.18075188  0.40897713  0.51325106     0.13300
H311        H  0.27866963  0.39748302  0.49249756     0.13300
H312        H  0.30861145  0.59128721  0.50661146     0.13300
C313        C  0.02962220  0.25780207  0.02306876    -0.16000
C314        C  0.98025482  0.22666064  0.99639628    -0.31100
H315        H  0.06931630  0.23196229  0.04544666     0.13100
H316        H  0.94040529  0.25081599  0.97159583     0.13600
C317        C  0.02416135  0.73804141  0.00093866    -0.16000
C318        C  0.97862255  0.77731597  0.99472370    -0.31100
H319        H  0.06960150  0.75529307  0.01264340     0.13100
H320        H  0.93317924  0.76016493  0.98538017     0.13600
C321        C  0.76684018  0.51956290  0.96807519    -0.12900
C322        C  0.80457183  0.47021639  0.99196262     0.09300
C323        C  0.78820122  0.42793344  0.03410910    -0.12900
C324        C  0.73547030  0.43576196  0.05288097    -0.12900
C325        C  0.69964309  0.48691145  0.03115937     0.09300
C326        C  0.71526086  0.52813720  0.98796453    -0.12900
H327        H  0.77843907  0.55324564  0.93594475     0.13300
H328        H  0.81672621  0.38978027  0.05352280     0.13300
H329        H  0.72380658  0.40320947  0.08598249     0.13300
H330        H  0.68764735  0.56730298  0.96980016     0.13300
C331        C  0.31086924  0.56119640  0.95865615    -0.12900
C332        C  0.34595149  0.50925241  0.97855156     0.09300
C333        C  0.33129947  0.46798451  0.02229623    -0.12900
C334        C  0.28096462  0.47703817  0.04412274    -0.12900
C335        C  0.24352668  0.52685164  0.02152832     0.09300
C336        C  0.25933870  0.56952085  0.97938488    -0.12900
H337        H  0.32196960  0.59385799  0.92531990     0.13300
H338        H  0.35854593  0.42826947  0.03918759     0.13300
H339        H  0.26976013  0.44314822  0.07629844     0.13300
H340        H  0.23102544  0.60814077  0.96115129     0.13300
C341        C  0.97976577  0.43523704  0.79151185    -0.12900
C342        C  0.99720753  0.48674829  0.82678278     0.09300
C343        C  0.03730440  0.52861147  0.81000286    -0.12900
C344        C  0.05729850  0.52108737  0.75686146    -0.12900
C345        C  0.03644826  0.47223751  0.71862204     0.09300
C346        C  0.99873825  0.42837242  0.73721366    -0.12900
H347        H  0.94937878  0.40200220  0.80431653     0.13300
H348        H  0.05244183  0.56785972  0.83753981     0.13300
H349        H  0.08624767  0.55574143  0.74382584     0.13300
H350        H  0.98184558  0.39040054  0.70845968     0.13300
C351        C  0.96411100  0.47870437  0.23272766    -0.12900
C352        C  0.97096255  0.53361447  0.26361697     0.09300
C353        C  0.00839475  0.57934774  0.24769781    -0.12900
C354        C  0.04076196  0.56894322  0.20388194    -0.12900
C355        C  0.03710527  0.51220040  0.17668704     0.09300
C356        C  0.99735407  0.46787536  0.19015046    -0.12900
H357        H  0.93592971  0.44248146  0.24428034     0.13300
H358        H  0.01459831  0.62203483  0.27104815     0.13300
H359        H  0.07007376  0.60432386  0.19285508     0.13300
H360        H  0.99221833  0.42453497  0.16798870     0.13300
loop_ 
_geom_bond_atom_site_label_1 
_geom_bond_atom_site_label_2 
_geom_bond_distance 
_geom_bond_site_symmetry_2 
_ccdc_geom_bond_type 
O1           Ni7   1.933       .  S
O1           C22   1.275   1_655  A
O2          Ni25   1.933   1_556  S
O2           C11   1.277   1_656  A
O3           Ni7   1.906   1_554  S
O3          Ni25   1.931       .  S
O3          Ni19   1.916   1_655  S
O3           H26   0.967       .  S
C4           O21   1.267       .  A
C4           O13   1.267       .  A
C4          C335   1.470       .  S
O5          Ni24   1.919       .  S
O5           C11   1.272       .  A
O6          Ni24   1.898       .  S
O6            C8   1.272       .  A
Ni7          O10   1.915       .  S
Ni7          O12   1.903       .  S
C8           O18   1.276       .  A
C8          C355   1.466       .  S
O9          Ni25   1.915       .  S
O9           C15   1.268   1_554  A
O10          C15   1.266       .  A
C11         C313   1.483       .  S
O12          C14   1.276       .  A
O13         Ni24   1.917       .  S
C14          O20   1.280       .  A
C14         C342   1.466       .  S
C15         C322   1.473       .  S
H16          O17   0.965   1_556  S
O17         Ni25   1.917   1_455  S
O17         Ni19   1.928       .  S
O17         Ni24   1.916       .  S
O18         Ni19   1.939       .  S
Ni19         O23   1.923       .  S
Ni19         O21   1.910       .  S
O20         Ni25   1.947   1_556  S
C22          O23   1.273   1_556  A
C22         C317   1.491   1_556  S
O27         Ni33   1.928       .  S
O27          C48   1.274       .  A
O28         Ni51   1.908       .  S
O28          C37   1.269       .  A
O29         Ni33   1.921       .  S
O29         Ni51   1.928       .  S
O29         Ni45   1.901   1_655  S
O29          H52   0.966   1_655  S
C30          O47   1.265       .  A
C30          O39   1.265       .  A
C30         C345   1.472       .  S
O31         Ni50   1.920       .  S
O31          C37   1.272   1_455  A
O32         Ni50   1.911       .  S
O32          C34   1.273       .  A
Ni33         O36   1.918       .  S
Ni33         O38   1.900       .  S
C34          O44   1.285       .  A
C34         C304   1.499       .  S
O35         Ni51   1.900       .  S
O35          C41   1.263       .  A
O36          C41   1.266       .  A
C37         C289   1.476       .  S
O38          C40   1.270       .  A
O39         Ni50   1.918       .  S
C40          O46   1.285       .  A
C40         C294   1.496       .  S
C41         C352   1.469       .  S
H42          O43   0.966       .  S
O43         Ni51   1.903       .  S
O43         Ni45   1.921   1_655  S
O43         Ni50   1.923   1_655  S
O44         Ni45   1.971       .  S
Ni45         O49   1.909       .  S
Ni45         O47   1.906       .  S
O46         Ni51   1.973       .  S
C48          O49   1.269   1_655  A
C48         C286   1.478   1_655  S
O53         Ni59   1.929       .  S
O53          C74   1.274   1_556  A
O54         Ni77   1.909       .  S
O54          C63   1.268   1_556  A
O55         Ni59   1.919       .  S
O55         Ni77   1.938       .  S
O55         Ni71   1.895   1_556  S
O55          H78   0.966       .  S
C56          O73   1.260       .  A
C56          O65   1.268       .  A
C56         C276   1.464       .  S
O57         Ni76   1.929       .  S
O57          C63   1.274       .  A
O58         Ni76   1.905       .  S
O58          C60   1.273       .  A
Ni59         O62   1.909       .  S
Ni59         O64   1.898       .  S
C60          O70   1.276       .  A
C60         C325   1.468       .  S
O61         Ni77   1.895       .  S
O61          C67   1.262       .  A
O62          C67   1.265       .  A
C63         C262   1.481   1_554  S
O64          C66   1.271       .  A
O65         Ni76   1.918       .  S
C66          O72   1.276       .  A
C66         C332   1.464       .  S
C67         C269   1.458       .  S
H68          O69   0.966       .  S
O69         Ni77   1.904   1_554  S
O69         Ni71   1.936       .  S
O69         Ni76   1.916       .  S
O70         Ni71   1.943       .  S
Ni71         O75   1.906       .  S
Ni71         O73   1.884       .  S
O72         Ni77   1.944       .  S
C74          O75   1.267       .  A
C74         C257   1.475       .  S
O79         Ni85   1.943       .  S
O79         C100   1.277       .  A
O80        Ni103   1.903       .  S
O80          C89   1.267       .  A
O81         Ni85   1.931       .  S
O81        Ni103   1.949       .  S
O81         Ni97   1.883       .  S
O81         H104   0.966       .  S
C82          O99   1.259       .  A
C82          O91   1.259       .  A
C82         C266   1.460       .  S
O83        Ni102   1.926       .  S
O83          C89   1.274       .  A
O84        Ni102   1.911       .  S
O84          C86   1.273       .  A
Ni85         O88   1.908       .  S
Ni85         O90   1.916       .  S
C86          O96   1.286       .  A
C86         C297   1.494       .  S
O87        Ni103   1.907       .  S
O87          C93   1.257       .  A
O88          C93   1.264       .  A
C89         C253   1.477       .  S
O90          C92   1.274       .  A
O91        Ni102   1.902       .  S
C92          O98   1.282       .  A
C92         C307   1.499       .  S
C93         C279   1.469       .  S
H94          O95   0.966       .  S
O95        Ni103   1.906       .  S
O95         Ni97   1.948       .  S
O95        Ni102   1.931       .  S
O96         Ni97   1.967       .  S
Ni97        O101   1.906       .  S
Ni97         O99   1.903       .  S
O98        Ni103   1.958       .  S
C100        O101   1.268       .  A
C100        C249   1.481       .  S
N105        C110   1.361       .  A
N105        C109   1.358       .  A
N105        H137   1.036   1_655  S
N106        C113   1.356       .  A
N106        C114   1.358       .  A
N107        C112   1.357       .  A
N107        C111   1.360       .  A
N107        H138   1.035   1_655  S
N108        C115   1.357       .  A
N108        C116   1.356       .  A
C109        C117   1.389       .  A
C109        C125   1.427   1_554  A
C110        C126   1.426       .  A
C110        C118   1.387       .  A
C111        C119   1.386       .  A
C111        C128   1.425       .  A
C112        C127   1.425       .  A
C112        C120   1.388       .  A
C113        C125   1.423       .  A
C113        C121   1.388   1_655  A
C114        C128   1.422   1_565  A
C114        C122   1.385   1_655  A
C115        C123   1.385   1_655  A
C115        C126   1.419   1_545  A
C116        C124   1.390   1_655  A
C116        C127   1.426   1_554  A
C117        C118   1.381       .  A
C117        H129   1.082       .  S
C118        H130   1.083       .  S
C119        C120   1.378       .  A
C119        H131   1.082       .  S
C120        H132   1.082       .  S
C121        C122   1.374       .  A
C121        H133   1.082       .  S
C122        H134   1.081       .  S
C123        C124   1.371       .  A
C123        H135   1.082       .  S
C124        H136   1.081       .  S
C125        C318   1.497       .  S
C126        C247   1.472       .  S
C127        C314   1.500       .  S
C128        C246   1.477       .  S
N139        C144   1.354       .  A
N139        C143   1.360       .  A
N139        H171   1.037   1_655  S
N140        C147   1.359       .  A
N140        C148   1.354       .  A
N141        C146   1.362       .  A
N141        C145   1.354       .  A
N141        H172   1.037   1_655  S
N142        C149   1.351   1_655  A
N142        C150   1.355   1_655  A
C143        C151   1.386       .  A
C143        C159   1.421   1_565  A
C144        C160   1.421   1_655  A
C144        C152   1.389       .  A
C145        C153   1.392       .  A
C145        C162   1.426       .  A
C146        C161   1.421   1_545  A
C146        C154   1.384       .  A
C147        C159   1.420       .  A
C147        C155   1.383       .  A
C148        C162   1.426       .  A
C148        C156   1.390       .  A
C149        C157   1.390       .  A
C149        C160   1.419       .  A
C150        C158   1.384       .  A
C150        C161   1.412   1_455  A
C151        C152   1.376       .  A
C151        H163   1.081       .  S
C152        H164   1.082       .  S
C153        C154   1.376       .  A
C153        H165   1.082       .  S
C154        H166   1.082       .  S
C155        C156   1.374       .  A
C155        H167   1.082       .  S
C156        H168   1.081       .  S
C157        C158   1.372       .  A
C157        H169   1.082       .  S
C158        H170   1.083       .  S
C159        C245   1.477       .  S
C160        C290   1.487       .  S
C161        C248   1.472       .  S
C162        C285   1.491       .  S
N173        C178   1.360       .  A
N173        C177   1.355       .  A
N173        H205   1.037       .  S
N174        C181   1.354       .  A
N174        C182   1.359       .  A
N175        C180   1.354       .  A
N175        C179   1.358       .  A
N175        H206   1.033       .  S
N176        C183   1.357       .  A
N176        C184   1.353       .  A
C177        C185   1.389       .  A
C177        C193   1.425   1_556  A
C178        C194   1.421   1_565  A
C178        C186   1.385       .  A
C179        C187   1.386       .  A
C179        C196   1.422   1_545  A
C180        C195   1.426       .  A
C180        C188   1.390       .  A
C181        C193   1.423       .  A
C181        C189   1.389       .  A
C182        C196   1.420       .  A
C182        C190   1.384       .  A
C183        C191   1.384       .  A
C183        C194   1.416       .  A
C184        C192   1.390       .  A
C184        C195   1.423   1_556  A
C185        C186   1.377       .  A
C185        H197   1.082       .  S
C186        H198   1.082       .  S
C187        C188   1.377       .  A
C187        H199   1.081       .  S
C188        H200   1.081       .  S
C189        C190   1.372       .  A
C189        H201   1.082       .  S
C190        H202   1.081       .  S
C191        C192   1.370       .  A
C191        H203   1.081       .  S
C192        H204   1.082       .  S
C193        C261   1.493       .  S
C194        C242   1.470       .  S
C195        C258   1.489   1_554  S
C196        C243   1.472       .  S
N207        C212   1.354       .  A
N207        C211   1.359       .  A
N207        H239   1.036       .  S
N208        C215   1.358       .  A
N208        C216   1.354       .  A
N209        C214   1.358       .  A
N209        C213   1.353       .  A
N209        H240   1.034       .  S
N210        C217   1.354       .  A
N210        C218   1.358       .  A
C211        C219   1.385       .  A
C211        C227   1.419   1_545  A
C212        C228   1.421       .  A
C212        C220   1.389       .  A
C213        C221   1.389       .  A
C213        C230   1.420       .  A
C214        C229   1.420   1_565  A
C214        C222   1.387       .  A
C215        C227   1.418       .  A
C215        C223   1.384       .  A
C216        C230   1.423       .  A
C216        C224   1.389       .  A
C217        C225   1.387       .  A
C217        C228   1.423       .  A
C218        C226   1.385       .  A
C218        C229   1.422       .  A
C219        C220   1.375       .  A
C219        H231   1.081       .  S
C220        H232   1.082       .  S
C221        C222   1.374       .  A
C221        H233   1.082       .  S
C222        H234   1.082       .  S
C223        C224   1.374       .  A
C223        H235   1.081       .  S
C224        H236   1.082       .  S
C225        C226   1.377       .  A
C225        H237   1.082       .  S
C226        H238   1.081       .  S
C227        C244   1.471       .  S
C228        C250   1.489       .  S
C229        C241   1.470       .  S
C230        C254   1.486       .  S
C241        C242   1.219       .  T
C243        C244   1.220       .  T
C245        C246   1.223       .  T
C247        C248   1.220       .  T
C249        C250   1.344       .  D
C249        H251   1.087       .  S
C250        H252   1.086       .  S
C253        C254   1.343       .  D
C253        H255   1.087       .  S
C254        H256   1.087       .  S
C257        C258   1.343   1_554  D
C257        H259   1.087       .  S
C258        H260   1.087       .  S
C261        C262   1.346   1_554  D
C261        H263   1.087       .  S
C262        H264   1.087       .  S
C265        C266   1.402       .  A
C265        C270   1.386       .  A
C265        H271   1.083       .  S
C266        C267   1.404       .  A
C267        C268   1.391       .  A
C267        H272   1.083       .  S
C268        C269   1.402       .  A
C268        H273   1.083       .  S
C269        C270   1.401       .  A
C270        H274   1.083       .  S
C275        C276   1.406       .  A
C275        C280   1.391       .  A
C275        H281   1.083       .  S
C276        C277   1.401       .  A
C277        C278   1.391       .  A
C277        H282   1.083       .  S
C278        C279   1.408       .  A
C278        H283   1.083       .  S
C279        C280   1.400       .  A
C280        H284   1.083       .  S
C285        C286   1.346   1_655  D
C285        H287   1.086       .  S
C286        H288   1.087       .  S
C289        C290   1.347   1_655  D
C289        H291   1.087       .  S
C290        H292   1.087       .  S
C293        C294   1.410       .  A
C293        C298   1.399       .  A
C293        H299   1.083       .  S
C294        C295   1.407       .  A
C295        C296   1.407       .  A
C295        H300   1.083       .  S
C296        C297   1.412       .  A
C296        H301   1.083       .  S
C297        C298   1.404       .  A
C298        H302   1.083       .  S
C303        C304   1.410       .  A
C303        C308   1.405       .  A
C303        H309   1.083       .  S
C304        C305   1.407       .  A
C305        C306   1.405       .  A
C305        H310   1.083       .  S
C306        C307   1.410       .  A
C306        H311   1.083       .  S
C307        C308   1.408       .  A
C308        H312   1.083       .  S
C313        C314   1.344   1_454  D
C313        H315   1.088       .  S
C314        H316   1.086       .  S
C317        C318   1.351   1_454  D
C317        H319   1.086       .  S
C318        H320   1.086       .  S
C321        C322   1.406       .  A
C321        C326   1.390       .  A
C321        H327   1.083       .  S
C322        C323   1.405   1_556  A
C323        C324   1.400       .  A
C323        H328   1.083       .  S
C324        C325   1.404       .  A
C324        H329   1.083       .  S
C325        C326   1.400   1_554  A
C326        H330   1.084       .  S
C331        C332   1.403       .  A
C331        C336   1.399       .  A
C331        H337   1.083       .  S
C332        C333   1.400   1_556  A
C333        C334   1.389       .  A
C333        H338   1.084       .  S
C334        C335   1.404       .  A
C334        H339   1.083       .  S
C335        C336   1.405   1_554  A
C336        H340   1.083       .  S
C341        C342   1.403       .  A
C341        C346   1.399       .  A
C341        H347   1.083       .  S
C342        C343   1.400   1_655  A
C343        C344   1.390       .  A
C343        H348   1.084       .  S
C344        C345   1.405       .  A
C344        H349   1.083       .  S
C345        C346   1.406   1_455  A
C346        H350   1.083       .  S
C351        C352   1.403       .  A
C351        C356   1.390       .  A
C351        H357   1.083       .  S
C352        C353   1.406   1_655  A
C353        C354   1.397       .  A
C353        H358   1.083       .  S
C354        C355   1.403       .  A
C354        H359   1.083       .  S
C355        C356   1.402   1_455  A
C356        H360   1.084       .  S
