geometry optimzed in LAMMPS
_audit_creation_date              2020-11-30 
_audit_creation_method            'lammps2cif' 
_symmetry_space_group_name_H-M    'P1' 
_symmetry_Int_Tables_number       1 
_symmetry_cell_setting            triclinic 
loop_ 
_symmetry_equiv_pos_as_xyz 
  x,y,z 
_cell_length_a                    26.50918589 
_cell_length_b                    26.195606576452498 
_cell_length_c                    26.42686310034236 
_cell_angle_alpha                 90.30312200446296 
_cell_angle_beta                  90.05414958082214 
_cell_angle_gamma                 90.31425422352241 
loop_ 
_atom_site_label 
_atom_site_type_symbol 
_atom_site_fract_x 
_atom_site_fract_y 
_atom_site_fract_z 
_atom_site_charge 
N1          N  0.99477291  0.51026763  0.41953842    -0.36000
N2          N  0.00033640  0.42551731  0.48999516    -0.56500
N3          N  0.01272202  0.49686439  0.57378830    -0.36000
N4          N  0.01297744  0.58135782  0.50352305    -0.56500
C5          C  0.99827837  0.47033870  0.38693187     0.27600
C6          C  0.00835083  0.55284222  0.39392189     0.27600
C7          C  0.02360897  0.45250841  0.59733584     0.27600
C8          C  0.02779763  0.53539393  0.60465834     0.27600
C9          C  0.98549041  0.39958536  0.44817744     0.36200
C10         C  0.99674545  0.39240996  0.52888421     0.36200
C11         C  0.00672636  0.61520493  0.46565467     0.36200
C12         C  0.01069962  0.60835268  0.54725042     0.36200
C13         C  0.01329577  0.48781169  0.33988186    -0.21300
C14         C  0.02002290  0.53978186  0.34436876    -0.21300
C15         C  0.04595709  0.46300210  0.64374507    -0.21300
C16         C  0.04822210  0.51527196  0.64855971    -0.21300
C17         C  0.97242766  0.34986732  0.46058891    -0.22300
C18         C  0.97969771  0.34528579  0.51167161    -0.22300
C19         C  0.00108017  0.66400194  0.48531262    -0.22300
C20         C  0.00364034  0.65970928  0.53691194    -0.22300
C21         C  0.98801850  0.41860165  0.39832910    -0.17700
C22         C  0.00881170  0.60336786  0.41349076    -0.17700
C23         C  0.01976978  0.58793973  0.59591180    -0.17700
C24         C  0.01138466  0.40296907  0.57923123    -0.17700
H25         H  0.01959878  0.46532422  0.30602249     0.15200
H26         H  0.03236536  0.56501536  0.31449369     0.15200
H27         H  0.05866327  0.43589019  0.67169064     0.15200
H28         H  0.06281940  0.53592991  0.68102198     0.15200
H29         H  0.95983089  0.31969721  0.43536604     0.13500
H30         H  0.97353659  0.31099235  0.53354393     0.13500
H31         H  0.99616549  0.69919440  0.46463669     0.13500
H32         H  0.00196377  0.69125934  0.56339906     0.13500
H33         H  0.97952325  0.50910221  0.45572217     0.26800
H34         H  0.99069419  0.50070888  0.54155221     0.26800
O35         O  0.02239411  0.14418634  0.08486909    -0.79500
O36         O  0.98709151  0.85601035  0.07278003    -0.81100
O37         O  0.92300926  0.00459129  0.14505268    -0.78100
O38         O  0.08584179  0.98620726  0.13961055    -0.76500
O39         O  0.14765297  0.98540421  0.07904409    -0.78300
O40         O  0.85900841  0.01304031  0.08751092    -0.79200
O41         O  0.99526499  0.91361513  0.13780916    -0.80500
O42         O  0.01161514  0.08274282  0.14529548    -0.80800
Eu43       Eu  0.00358668  0.99954045  0.10035746     2.39200
O44         O  0.04751349  0.94522525  0.04470856    -0.88300
O45         O  0.95644274  0.05867305  0.05366822    -0.91900
C46         C  0.01942084  0.12937312  0.13112141     1.02800
C47         C  0.98945788  0.86778547  0.12015390     1.02600
C48         C  0.87606778  0.00892250  0.13327965     1.02500
C49         C  0.13219745  0.98297216  0.12550057     1.00400
H50         H  0.92354851  0.93494723  0.06888633     0.30100
O51         O  0.94600033  0.95514182  0.04825191    -1.00700
H52         H  0.08325923  0.06633859  0.07130008     0.30200
O53         O  0.05967906  0.04785255  0.05024939    -1.03200
O54         O  0.98520009  0.86323352  0.90636133    -0.80500
O55         O  0.01177296  0.15182032  0.92179764    -0.80000
O56         O  0.84937289  0.93496337  0.99861844    -0.78400
O57         O  0.13560470  0.90384548  0.99407933    -0.81800
O58         O  0.15391816  0.07429561  0.99284573    -0.79600
O59         O  0.86683174  0.10215015  0.00762632    -0.78300
O60         O  0.91299720  0.01397646  0.85519875    -0.79800
O61         O  0.08139126  0.00378538  0.85034116    -0.81700
O62         O  0.85576305  0.01952410  0.91998425    -0.78500
O63         O  0.14184941  0.98974172  0.91085384    -0.81100
O64         O  0.90315495  0.86708897  0.99263050    -0.76900
O65         O  0.93484579  0.15632852  0.00752357    -0.76900
O66         O  0.09662425  0.13944370  0.99234304    -0.76600
O67         O  0.06702232  0.85033929  0.99130039    -0.80100
O68         O  0.98807839  0.92771717  0.84831446    -0.79500
O69         O  0.00204727  0.09472296  0.85669228    -0.77800
Eu70       Eu  0.98995136  0.90141850  0.99194990     2.39800
Eu71       Eu  0.01169851  0.10507582  0.00159344     2.39600
Eu72       Eu  0.89863942  0.01429549  0.00212827     2.38400
Eu73       Eu  0.10448436  0.99309252  0.99567160     2.39900
Eu74       Eu  0.99828844  0.00866246  0.89409077     2.39800
O75         O  0.05656047  0.05093110  0.94723094    -0.92200
O76         O  0.94312729  0.96088868  0.94571467    -0.91100
C77         C  0.98482424  0.88025442  0.86051741     1.02900
C78         C  0.00715500  0.14049409  0.87454768     1.01700
C79         C  0.85865046  0.88679349  0.99566324     1.01100
C80         C  0.11491258  0.85892763  0.99273231     1.03100
C81         C  0.14187349  0.12212123  0.99052992     1.02000
C82         C  0.88706610  0.14711624  0.00893621     1.00800
C83         C  0.86748323  0.01781888  0.87262196     1.00900
C84         C  0.12740708  0.99525501  0.86458094     1.03500
H85         H  0.93366990  0.08629940  0.93086191     0.30900
O86         O  0.95319101  0.06207650  0.94995808    -1.04400
H87         H  0.06390149  0.92736496  0.91989066     0.32900
O88         O  0.04590523  0.95003589  0.94231708    -1.06900
N89         N  0.50077044  0.01130049  0.57456368    -0.36000
N90         N  0.41912149  0.00901883  0.49961604    -0.56500
N91         N  0.49410876  0.01703358  0.41936277    -0.36000
N92         N  0.57537977  0.01176451  0.49269165    -0.56500
C93         C  0.46043415  0.00260161  0.60496339     0.27600
C94         C  0.54306793  0.99951867  0.60103860     0.27600
C95         C  0.45224329  0.00681300  0.39168791     0.27600
C96         C  0.53420361  0.01157635  0.38821054     0.27600
C97         C  0.39101986  0.01541054  0.54184177     0.36200
C98         C  0.38791347  0.01664166  0.45980101     0.36200
C99         C  0.60686752  0.01509239  0.53282481     0.36200
C100        C  0.60308989  0.02352692  0.45132282     0.36200
C101        C  0.47734249  0.98618930  0.65176404    -0.21300
C102        C  0.52928002  0.98381809  0.64916951    -0.21300
C103        C  0.46602522  0.99492912  0.34236974    -0.21300
C104        C  0.51765450  0.99784947  0.34022929    -0.21300
C105        C  0.34150821  0.02620934  0.52859577    -0.22300
C106        C  0.33953897  0.02670952  0.47668805    -0.22300
C107        C  0.65491240  0.02865029  0.51678118    -0.22300
C108        C  0.65235264  0.03463853  0.46527233    -0.22300
C109        C  0.40884707  0.01001267  0.59217016    -0.17700
C110        C  0.59376547  0.00390168  0.58349875    -0.17700
C111        C  0.58517101  0.02120594  0.40091178    -0.17700
C112        C  0.40189396  0.01239584  0.40836867    -0.17700
H113        H  0.45455047  0.97622825  0.68424633     0.15200
H114        H  0.55401019  0.97196269  0.67945839     0.15200
H115        H  0.44155707  0.98594028  0.31074386     0.15200
H116        H  0.54040328  0.99109071  0.30689078     0.15200
H117        H  0.30991173  0.03299363  0.55358575     0.13500
H118        H  0.30628465  0.03365795  0.45399554     0.13500
H119        H  0.68831670  0.03399120  0.53984554     0.13500
H120        H  0.68345335  0.04522567  0.44093490     0.13500
H121        H  0.49955894  0.02861310  0.53942368     0.26800
H122        H  0.49493725  0.03324053  0.45524448     0.26800
N123        N  0.50250426  0.57787043  0.03024214    -0.36000
N124        N  0.57768430  0.49720088  0.03107800    -0.56500
N125        N  0.49782744  0.42224365  0.04175736    -0.36000
N126        N  0.42174935  0.50157211  0.03489200    -0.56500
C127        C  0.54367022  0.60361536  0.01324563     0.27600
C128        C  0.46152026  0.60652662  0.01960692     0.27600
C129        C  0.53828051  0.39149118  0.03599180     0.27600
C130        C  0.45609142  0.39324195  0.03403752     0.27600
C131        C  0.60815727  0.53850839  0.03400893     0.36200
C132        C  0.60571171  0.45699818  0.04572275     0.36200
C133        C  0.39389642  0.54407030  0.04217948     0.36200
C134        C  0.39166733  0.46130786  0.04612347     0.36200
C135        C  0.52853884  0.64921093  0.99175697    -0.21300
C136        C  0.47687046  0.65131767  0.99630333    -0.21300
C137        C  0.52219215  0.34234332  0.02465572    -0.21300
C138        C  0.47047203  0.34332543  0.02366319    -0.21300
C139        C  0.65576910  0.52458760  0.05050646    -0.22300
C140        C  0.65402183  0.47294916  0.05858715    -0.22300
C141        C  0.34572533  0.53065541  0.05797735    -0.22300
C142        C  0.34416870  0.47821568  0.05988781    -0.22300
C143        C  0.59457311  0.58798086  0.01877422    -0.15200
C144        C  0.41077415  0.59439721  0.03184593    -0.17700
C145        C  0.40561918  0.40950931  0.04090472    -0.17700
C146        C  0.58917545  0.40573835  0.04383009    -0.17700
H147        H  0.55215592  0.67821067  0.97473483     0.15200
H148        H  0.45319281  0.68214292  0.98333001     0.15200
H149        H  0.54526755  0.30889640  0.01863708     0.15200
H150        H  0.44657470  0.31033130  0.01738157     0.15200
H151        H  0.68830093  0.54911753  0.05621764     0.13500
H152        H  0.68503566  0.44980306  0.07169326     0.13500
H153        H  0.31468284  0.55579374  0.06682098     0.13500
H154        H  0.31176202  0.45521114  0.07017202     0.13500
H155        H  0.50260241  0.54529195  0.05247684     0.26800
H156        H  0.49861448  0.45905625  0.05637680     0.26800
C157        C  0.68758012  0.70255985  0.01871047     0.19300
C158        C  0.68335094  0.75476893  0.02961279    -0.18800
C159        C  0.72482276  0.78746713  0.02458175    -0.11100
C160        C  0.77179608  0.76860003  0.00833210     0.21600
C161        C  0.77633521  0.71619674  0.99824052    -0.20400
C162        C  0.73472557  0.68345784  0.00312109    -0.11200
C163        C  0.81711728  0.80200736  0.00355560    -0.15400
C164        C  0.81415951  0.85276750  0.99682605    -0.29200
C165        C  0.64288070  0.66910810  0.02726220    -0.03500
C166        C  0.63681415  0.62310242  0.00535619    -0.40100
H167        H  0.64780543  0.77030677  0.04255005     0.12700
H168        H  0.71997694  0.82714297  0.03480282     0.12300
H169        H  0.81227300  0.70049846  0.98665200     0.11800
H170        H  0.74023658  0.64319071  0.99604770     0.12000
H171        H  0.85398984  0.78415369  0.00529692     0.14800
H172        H  0.77765733  0.87090593  0.99334499     0.13500
H173        H  0.61376925  0.68279786  0.05281232     0.11200
H174        H  0.66535097  0.60836699  0.97986516     0.13200
C175        C  0.70195634  0.31563637  0.02089509     0.19300
C176        C  0.74900333  0.32062211  0.99710721    -0.18800
C177        C  0.78254870  0.27970077  0.99549536    -0.11100
C178        C  0.76962544  0.23275049  0.01777190     0.21600
C179        C  0.72240869  0.22751442  0.04101118    -0.20400
C180        C  0.68889549  0.26842549  0.04271208    -0.11200
C181        C  0.80340274  0.18787182  0.01554688    -0.15400
C182        C  0.85381461  0.19196693  0.01170126    -0.29200
C183        C  0.66666856  0.35945730  0.01946419    -0.03500
C184        C  0.62630175  0.36395386  0.04990686    -0.40100
H185        H  0.75967453  0.35620926  0.97924346     0.12700
H186        H  0.81787108  0.28468646  0.97562927     0.12300
H187        H  0.71128698  0.19149342  0.05772831     0.11800
H188        H  0.65245837  0.26206660  0.05988563     0.12000
H189        H  0.78620425  0.15026820  0.01878236     0.14800
H190        H  0.87171140  0.22932486  0.01128066     0.13500
H191        H  0.67392858  0.38923879  0.99185708     0.11200
H192        H  0.61755814  0.33497737  0.07769047     0.13200
C193        C  0.29736505  0.68442363  0.00635034     0.19300
C194        C  0.24783617  0.67807235  0.98836303    -0.18800
C195        C  0.21473478  0.71956160  0.98601577    -0.11100
C196        C  0.23053644  0.76867537  0.00174190     0.21600
C197        C  0.28021661  0.77496927  0.01910153    -0.20400
C198        C  0.31326820  0.73364356  0.02125114    -0.11200
C199        C  0.19754478  0.81470581  0.99956927    -0.15400
C200        C  0.14720815  0.81292810  0.99303990    -0.29200
C201        C  0.33179261  0.63951145  0.00700425    -0.03500
C202        C  0.37471982  0.63783151  0.03433955    -0.40100
H203        H  0.23470922  0.64083357  0.97588318     0.12700
H204        H  0.17736791  0.71276464  0.97101888     0.12300
H205        H  0.29376664  0.81229117  0.03082823     0.11800
H206        H  0.35147377  0.74110224  0.03355899     0.12000
H207        H  0.21545092  0.85173425  0.00514470     0.14800
H208        H  0.12796809  0.77647503  0.98956580     0.13500
H209        H  0.32143968  0.60646119  0.98413575     0.11200
H210        H  0.38627463  0.67022816  0.05728683     0.13200
C211        C  0.26074695  0.20548878  0.00490162     0.19300
C212        C  0.28798582  0.21968469  0.04834365    -0.18800
C213        C  0.31710322  0.26450089  0.04892363    -0.11100
C214        C  0.32005596  0.29547505  0.00561203     0.21600
C215        C  0.29431471  0.28018409  0.96168763    -0.20400
C216        C  0.26470522  0.23589894  0.96134261    -0.11200
C217        C  0.35294566  0.34140787  0.00346971    -0.15400
C218        C  0.36568709  0.36958583  0.04421562    -0.29200
C219        C  0.22675288  0.16017009  0.00626672    -0.03500
C220        C  0.18121405  0.16152982  0.98410429    -0.40100
H221        H  0.28586970  0.19662154  0.08218560     0.12700
H222        H  0.33798791  0.27419171  0.08287581     0.12300
H223        H  0.29694281  0.30276369  0.92755028     0.11800
H224        H  0.24509508  0.22531564  0.92686410     0.12000
H225        H  0.36882896  0.35166988  0.96695401     0.14800
H226        H  0.34822242  0.36266276  0.08068609     0.13500
H227        H  0.23653596  0.12809318  0.03018679     0.11200
H228        H  0.16965987  0.19623798  0.96503675     0.13200
C229        C  0.69420039  0.01920664  0.69036204     0.19300
C230        C  0.69647216  0.04768874  0.73543380    -0.18800
C231        C  0.73912674  0.04635390  0.76658323    -0.11100
C232        C  0.78099128  0.01609539  0.75370541     0.21600
C233        C  0.77937969  0.98828959  0.70811837    -0.20400
C234        C  0.73651360  0.98959879  0.67681025    -0.11200
C235        C  0.82675068  0.01362749  0.78679103    -0.15400
C236        C  0.82417167  0.02080022  0.83726768    -0.29200
C237        C  0.64805613  0.02400529  0.65799743    -0.03500
C238        C  0.63668960  0.99325518  0.61858466    -0.40100
H239        H  0.66506128  0.07151209  0.74656079     0.12700
H240        H  0.73936536  0.06996176  0.80027829     0.12300
H241        H  0.81128766  0.96522175  0.69683062     0.11800
H242        H  0.73737763  0.96807490  0.64184357     0.12000
H243        H  0.86261224  0.00351341  0.76968025     0.14800
H244        H  0.78767685  0.02728623  0.85464989     0.13500
H245        H  0.62227911  0.05499935  0.66657763     0.11200
H246        H  0.66163892  0.96235189  0.60806551     0.13200
C247        C  0.20953210  0.00030763  0.74377619     0.19300
C248        C  0.22538294  0.04045716  0.71251500    -0.18800
C249        C  0.26705339  0.03447538  0.68036764    -0.11100
C250        C  0.29274196  0.98767228  0.67782119     0.21600
C251        C  0.27597111  0.94706222  0.70792401    -0.20400
C252        C  0.23527329  0.95347530  0.74110914    -0.11200
C253        C  0.33456840  0.97963070  0.64125296    -0.15400
C254        C  0.37138159  0.01446599  0.63409473    -0.29200
C255        C  0.16628051  0.00767360  0.77903975    -0.03500
C256        C  0.16765999  0.98897670  0.82630279    -0.40100
H257        H  0.20596595  0.07672067  0.71355043     0.12700
H258        H  0.27846609  0.06601069  0.65656404     0.12300
H259        H  0.29464743  0.91042773  0.70599931     0.11800
H260        H  0.22333930  0.92147959  0.76403784     0.12000
H261        H  0.33485048  0.94446696  0.61924388     0.14800
H262        H  0.37340043  0.04804815  0.65830254     0.13500
H263        H  0.13480224  0.03123202  0.76729238     0.11200
H264        H  0.20157407  0.96958037  0.83877889     0.13200
C265        C  0.31131165  0.98052009  0.29880196     0.19300
C266        C  0.27479177  0.94283562  0.28924935    -0.18800
C267        C  0.24448716  0.94517819  0.24597768    -0.11100
C268        C  0.25056074  0.98504946  0.21089308     0.21600
C269        C  0.28840483  0.02175162  0.21956313    -0.20400
C270        C  0.31828994  0.01977918  0.26326040    -0.11200
C271        C  0.21750714  0.98925755  0.16546385    -0.15400
C272        C  0.16864943  0.97537449  0.16709191    -0.29200
C273        C  0.34395037  0.97619160  0.34419492    -0.03500
C274        C  0.36230447  0.01719433  0.36891812    -0.40100
H275        H  0.26949138  0.91166469  0.31552885     0.12700
H276        H  0.21674291  0.91533856  0.23975224     0.12300
H277        H  0.29433154  0.05243198  0.19286053     0.11800
H278        H  0.34745008  0.04839208  0.26868998     0.12000
H279        H  0.23223953  0.00778812  0.13184188     0.14800
H280        H  0.15305297  0.96151482  0.20248831     0.13500
H281        H  0.35408951  0.93827037  0.35712436     0.11200
H282        H  0.35076665  0.05536558  0.35828826     0.13200
C283        C  0.75669987  0.00505391  0.21759671     0.19300
C284        C  0.70973453  0.02934623  0.21684009    -0.18800
C285        C  0.67782391  0.02756009  0.25898714    -0.11100
C286        C  0.69221248  0.00109428  0.30300916     0.21600
C287        C  0.73843317  0.97521805  0.30296427    -0.20400
C288        C  0.77036418  0.97715171  0.26087156    -0.11200
C289        C  0.65952942  0.99777299  0.34879258    -0.15400
C290        C  0.62061951  0.02924332  0.35800812    -0.29200
C291        C  0.79019877  0.00842319  0.17247116    -0.03500
C292        C  0.84074793  0.00794805  0.17663841    -0.40100
H293        H  0.69788467  0.05021991  0.18364978     0.12700
H294        H  0.64176481  0.04634004  0.25622793     0.12300
H295        H  0.75001839  0.95353341  0.33574466     0.11800
H296        H  0.80540193  0.95619018  0.26211628     0.12000
H297        H  0.66762537  0.96802489  0.37611791     0.14800
H298        H  0.61101310  0.05913137  0.33157902     0.13500
H299        H  0.77297628  0.01292081  0.13545262     0.11200
H300        H  0.85768625  0.00614048  0.21402793     0.13200
C301        C  0.99511786  0.22483227  0.75583765     0.19300
C302        C  0.00572709  0.21855875  0.70421476    -0.18800
C303        C  0.00406568  0.26022579  0.67138210    -0.11100
C304        C  0.99138448  0.30912229  0.68962773     0.21600
C305        C  0.97899380  0.31498732  0.74085448    -0.20400
C306        C  0.98095922  0.27343873  0.77370920    -0.11200
C307        C  0.98925844  0.35445335  0.65622456    -0.15400
C308        C  0.01647767  0.35859450  0.61358355    -0.29200
C309        C  0.99750533  0.17979828  0.78972931    -0.03500
C310        C  0.00699697  0.18416296  0.83955019    -0.40100
H311        H  0.01566861  0.18134918  0.68930656     0.12700
H312        H  0.01188344  0.25367985  0.63172670     0.12300
H313        H  0.96808233  0.35197956  0.75560609     0.11800
H314        H  0.97044639  0.27948601  0.81280685     0.12000
H315        H  0.96541402  0.38613952  0.66761304     0.14800
H316        H  0.04088591  0.32779972  0.60140188     0.13500
H317        H  0.99236566  0.14212458  0.77302586     0.11200
H318        H  0.01445324  0.22148778  0.85602551     0.13200
C319        C  0.98624564  0.75671527  0.78029979     0.19300
C320        C  0.01696434  0.71328694  0.78106992    -0.18800
C321        C  0.01647909  0.67862476  0.74064338    -0.11100
C322        C  0.98476328  0.68657465  0.69875508     0.21600
C323        C  0.95266905  0.72897733  0.69882035    -0.20400
C324        C  0.95351505  0.76390488  0.73902151    -0.11200
C325        C  0.98326056  0.65085986  0.65506017    -0.15400
C326        C  0.02317970  0.62317652  0.64006818    -0.29200
C327        C  0.98846136  0.79315514  0.82351934    -0.03500
C328        C  0.98033538  0.84347709  0.81814207    -0.40100
H329        H  0.04184984  0.70646603  0.81283090     0.12700
H330        H  0.04038834  0.64536041  0.74271187     0.12300
H331        H  0.92725673  0.73539352  0.66737912     0.11800
H332        H  0.92807383  0.79604942  0.73798312     0.12000
H333        H  0.94871369  0.64884871  0.63289400     0.14800
H334        H  0.05845929  0.62498477  0.66084859     0.13500
H335        H  0.00014704  0.77862917  0.86012448     0.11200
H336        H  0.97256959  0.85886908  0.78087527     0.13200
C337        C  0.98415077  0.78577762  0.24132157     0.19300
C338        C  0.01019696  0.78779757  0.28748059    -0.18800
C339        C  0.00891178  0.74644970  0.32073437    -0.11100
C340        C  0.98119095  0.70200890  0.30854486     0.21600
C341        C  0.95318148  0.70098936  0.26343353    -0.20400
C342        C  0.95472771  0.74226014  0.23002346    -0.11200
C343        C  0.97944705  0.65665179  0.34225832    -0.15400
C344        C  0.01418497  0.64702255  0.37806919    -0.29200
C345        C  0.98804308  0.82989929  0.20628484    -0.03500
C346        C  0.98429637  0.82472370  0.15576008    -0.40100
H347        H  0.03225907  0.82127707  0.29754766     0.12700
H348        H  0.02926632  0.74996446  0.35603804     0.12300
H349        H  0.93047723  0.66784603  0.25368854     0.11800
H350        H  0.93250637  0.74010377  0.19570570     0.12000
H351        H  0.94861383  0.62957206  0.33710813     0.14800
H352        H  0.04558288  0.67296328  0.38442635     0.13500
H353        H  0.99705441  0.86711724  0.22236120     0.11200
H354        H  0.97818395  0.78712648  0.13931291     0.13200
C355        C  0.01320694  0.30304081  0.31149082     0.19300
C356        C  0.05662295  0.28299698  0.28871600    -0.18800
C357        C  0.05340031  0.24037367  0.25676215    -0.11100
C358        C  0.00671636  0.21614676  0.24799384     0.21600
C359        C  0.96339385  0.23552925  0.27154046    -0.20400
C360        C  0.96643287  0.27897282  0.30258487    -0.11200
C361        C  0.00255637  0.17099991  0.21399795    -0.15400
C362        C  0.02671173  0.16987712  0.16941012    -0.29200
C363        C  0.01860932  0.34583556  0.34807354    -0.03500
C364        C  0.98293488  0.38129230  0.35595639    -0.40100
H365        H  0.09315950  0.30037045  0.29576018     0.12700
H366        H  0.08754296  0.22574685  0.23966977     0.12300
H367        H  0.92709629  0.21731111  0.26545645     0.11800
H368        H  0.93251612  0.29268574  0.32080932     0.12000
H369        H  0.97580604  0.14090107  0.22328068     0.14800
H370        H  0.04910114  0.20281330  0.15820019     0.13500
H371        H  0.05320711  0.34795258  0.37014437     0.11200
H372        H  0.94941884  0.38253561  0.33235918     0.13200
loop_ 
_geom_bond_atom_site_label_1 
_geom_bond_atom_site_label_2 
_geom_bond_distance 
_geom_bond_site_symmetry_2 
_ccdc_geom_bond_type 
N1            C6   1.355   1_655  A
N1            C5   1.355       .  A
N1           H33   1.039       .  S
N2            C9   1.351   1_455  A
N2           C10   1.351   1_455  A
N3            C8   1.353       .  A
N3            C7   1.353       .  A
N3           H34   1.038   1_455  S
N4           C11   1.351       .  A
N4           C12   1.353       .  A
C5           C13   1.385   1_655  A
C5           C21   1.415       .  A
C6           C22   1.418       .  A
C6           C14   1.387       .  A
C7           C15   1.387       .  A
C7           C24   1.417       .  A
C8           C23   1.414       .  A
C8           C16   1.388       .  A
C9           C21   1.412       .  A
C9           C17   1.387       .  A
C10          C24   1.411   1_655  A
C10          C18   1.387       .  A
C11          C19   1.386       .  A
C11          C22   1.413       .  A
C12          C20   1.388       .  A
C12          C23   1.416       .  A
C13          C14   1.377       .  A
C13          H25   1.082       .  S
C14          H26   1.082       .  S
C15          C16   1.375       .  A
C15          H27   1.082       .  S
C16          H28   1.082       .  S
C17          C18   1.369       .  A
C17          H29   1.082       .  S
C18          H30   1.083       .  S
C19          C20   1.370       .  A
C19          H31   1.083   1_455  S
C20          H32   1.081       .  S
C21         C364   1.488       .  S
C22         C344   1.488       .  S
C23         C326   1.486       .  S
C24         C308   1.485       .  S
O35          C46   1.287       .  A
O35         Eu71   2.438       .  S
O36          C47   1.289       .  A
O36         Eu70   2.451   1_554  S
O37          C48   1.288       .  A
O37         Eu43   2.446   1_645  S
O38          C49   1.288       .  A
O38         Eu43   2.441       .  S
O39          C49   1.296       .  A
O39         Eu73   2.491   1_554  S
O40          C48   1.296       .  A
O40         Eu72   2.490       .  S
O41          C47   1.294       .  A
O41         Eu43   2.472   1_655  S
O42          C46   1.295       .  A
O42         Eu43   2.485   1_545  S
Eu43         O53   2.359   1_565  S
Eu43         O45   2.350   1_465  S
Eu43         O44   2.354       .  S
Eu43         O51   2.353   1_455  S
O44         Eu73   2.352   1_554  S
O44         Eu70   2.356   1_454  S
O45         Eu71   2.349   1_655  S
O45         Eu72   2.348       .  S
C46         C362   1.474       .  S
C47         C346   1.479       .  S
C48         C292   1.481       .  S
C49         C272   1.478       .  S
H50          O51   0.965       .  S
O51         Eu72   2.346   1_565  S
O51         Eu70   2.356   1_554  S
H52          O53   0.963       .  S
O53         Eu71   2.357       .  S
O53         Eu73   2.356   1_544  S
O54          C77   1.293       .  A
O54         Eu70   2.471       .  S
O55          C78   1.287       .  A
O55         Eu71   2.444   1_556  S
O56          C79   1.289       .  A
O56         Eu72   2.450   1_566  S
O57          C80   1.296       .  A
O57         Eu73   2.484       .  S
O58          C81   1.296       .  A
O58         Eu73   2.494   1_545  S
O59          C82   1.292       .  A
O59         Eu72   2.459       .  S
O60          C83   1.296       .  A
O60         Eu74   2.488       .  S
O61          C84   1.297   1_545  A
O61         Eu74   2.492   1_455  S
O62          C83   1.291       .  A
O62         Eu72   2.454   1_556  S
O63          C84   1.290       .  A
O63         Eu73   2.453       .  S
O64          C79   1.293       .  A
O64         Eu70   2.466       .  S
O65          C82   1.289       .  A
O65         Eu71   2.451   1_655  S
O66          C81   1.286       .  A
O66         Eu71   2.433   1_556  S
O67          C80   1.289       .  A
O67         Eu70   2.448   1_455  S
O68          C77   1.289       .  A
O68         Eu74   2.449   1_565  S
O69          C78   1.293       .  A
O69         Eu74   2.468   1_455  S
Eu70         O88   2.354   1_655  S
Eu70         O76   2.345       .  S
Eu71         O75   2.343   1_554  S
Eu71         O86   2.345   1_454  S
Eu72         O86   2.358   1_554  S
Eu72         O76   2.360   1_544  S
Eu73         O75   2.364   1_565  S
Eu73         O88   2.373       .  S
Eu74         O75   2.355   1_655  S
Eu74         O86   2.359       .  S
Eu74         O88   2.370   1_645  S
Eu74         O76   2.360   1_545  S
C77         C328   1.478       .  S
C78         C310   1.475       .  S
C79         C164   1.475       .  S
C80         C200   1.482       .  S
C81         C220   1.474       .  S
C82         C182   1.474       .  S
C83         C236   1.482       .  S
C84         C256   1.480       .  S
H85          O86   0.965       .  S
H87          O88   0.965       .  S
N89          C94   1.359   1_545  A
N89          C93   1.357       .  A
N89         H121   1.036       .  S
N90          C97   1.352       .  A
N90          C98   1.354       .  A
N91          C96   1.353       .  A
N91          C95   1.353       .  A
N91         H122   1.037       .  S
N92          C99   1.351       .  A
N92         C100   1.354       .  A
C93         C101   1.386   1_545  A
C93         C109   1.423       .  A
C94         C110   1.426   1_565  A
C94         C102   1.388       .  A
C95         C103   1.388   1_545  A
C95         C112   1.414       .  A
C96         C111   1.413       .  A
C96         C104   1.386   1_545  A
C97         C109   1.419       .  A
C97         C105   1.389       .  A
C98         C112   1.413       .  A
C98         C106   1.384       .  A
C99         C107   1.388       .  A
C99         C110   1.416       .  A
C100        C108   1.386       .  A
C100        C111   1.415       .  A
C101        C102   1.380       .  A
C101        H113   1.082       .  S
C102        H114   1.082       .  S
C103        C104   1.372       .  A
C103        H115   1.082       .  S
C104        H116   1.082       .  S
C105        C106   1.373       .  A
C105        H117   1.082       .  S
C106        H118   1.082       .  S
C107        C108   1.373       .  A
C107        H119   1.083       .  S
C108        H120   1.082       .  S
C109        C254   1.493       .  S
C110        C238   1.495   1_545  S
C111        C290   1.488       .  S
C112        C274   1.485       .  S
N123        C128   1.354       .  A
N123        C127   1.358       .  A
N123        H155   1.039       .  S
N124        C131   1.349       .  A
N124        C132   1.350       .  A
N125        C130   1.353       .  A
N125        C129   1.353       .  A
N125        H156   1.037       .  S
N126        C133   1.352       .  A
N126        C134   1.353       .  A
C127        C135   1.386   1_554  A
C127        C143   1.420       .  A
C128        C144   1.419       .  A
C128        C136   1.387   1_554  A
C129        C137   1.385       .  A
C129        C146   1.413       .  A
C130        C145   1.418       .  A
C130        C138   1.390       .  A
C131        C143   1.408       .  A
C131        C139   1.386       .  A
C132        C146   1.411       .  A
C132        C140   1.386       .  A
C133        C141   1.388       .  A
C133        C144   1.418       .  A
C134        C142   1.385       .  A
C134        C145   1.414       .  A
C135        C136   1.376       .  A
C135        H147   1.082       .  S
C136        H148   1.082       .  S
C137        C138   1.372       .  A
C137        H149   1.082       .  S
C138        H150   1.081       .  S
C139        C140   1.371       .  A
C139        H151   1.083       .  S
C140        H152   1.082       .  S
C141        C142   1.375       .  A
C141        H153   1.082       .  S
C142        H154   1.082       .  S
C143        C166   1.490       .  S
C144        C202   1.491       .  S
C145        C218   1.487       .  S
C146        C184   1.485       .  S
C157        C158   1.401       .  A
C157        C162   1.410       .  A
C157        C165   1.488       .  S
C158        C159   1.397       .  A
C158        H167   1.083       .  S
C159        C160   1.409       .  A
C159        H168   1.081       .  S
C160        C161   1.403   1_554  A
C160        C163   1.488       .  S
C161        C162   1.400   1_556  A
C161        H169   1.084       .  S
C162        H170   1.081   1_554  S
C163        H171   1.087       .  S
C163        C164   1.345   1_554  D
C164        H172   1.084       .  S
C165        H173   1.087       .  S
C165        C166   1.343       .  D
C166        H174   1.085   1_554  S
C175        C176   1.403   1_554  A
C175        C180   1.409       .  A
C175        C183   1.485       .  S
C176        C177   1.397       .  A
C176        H185   1.083       .  S
C177        C178   1.407   1_556  A
C177        H186   1.082       .  S
C178        C179   1.401       .  A
C178        C181   1.483       .  S
C179        C180   1.396       .  A
C179        H187   1.084       .  S
C180        H188   1.080       .  S
C181        H189   1.087       .  S
C181        C182   1.344       .  D
C182        H190   1.085       .  S
C183        H191   1.087   1_554  S
C183        C184   1.345       .  D
C184        H192   1.083       .  S
C193        C194   1.405   1_554  A
C193        C198   1.408       .  A
C193        C201   1.493       .  S
C194        C195   1.402       .  A
C194        H203   1.084       .  S
C195        C196   1.411   1_556  A
C195        H204   1.080       .  S
C196        C197   1.403       .  A
C196        C199   1.495   1_554  S
C197        C198   1.398       .  A
C197        H205   1.083       .  S
C198        H206   1.080       .  S
C199        H207   1.087   1_556  S
C199        C200   1.346       .  D
C200        H208   1.084       .  S
C201        H209   1.087   1_554  S
C201        C202   1.348       .  D
C202        H210   1.083       .  S
C211        C212   1.403       .  A
C211        C216   1.407   1_554  A
C211        C219   1.487       .  S
C212        C213   1.401       .  A
C212        H221   1.083       .  S
C213        C214   1.408       .  A
C213        H222   1.082       .  S
C214        C215   1.401   1_554  A
C214        C217   1.483       .  S
C215        C216   1.397       .  A
C215        H223   1.083       .  S
C216        H224   1.083       .  S
C217        H225   1.088   1_554  S
C217        C218   1.344       .  D
C218        H226   1.085       .  S
C219        H227   1.087       .  S
C219        C220   1.342   1_554  D
C220        H228   1.087       .  S
C229        C230   1.403       .  A
C229        C234   1.413   1_545  A
C229        C237   1.498       .  S
C230        C231   1.399       .  A
C230        H239   1.083       .  S
C231        C232   1.408       .  A
C231        H240   1.081       .  S
C232        C233   1.405   1_545  A
C232        C235   1.497       .  S
C233        C234   1.406       .  A
C233        H241   1.083       .  S
C234        H242   1.080       .  S
C235        H243   1.087       .  S
C235        C236   1.348       .  D
C236        H244   1.085       .  S
C237        H245   1.087       .  S
C237        C238   1.346   1_545  D
C238        H246   1.083       .  S
C247        C248   1.404       .  A
C247        C252   1.409   1_545  A
C247        C255   1.491       .  S
C248        C249   1.403       .  A
C248        H257   1.083       .  S
C249        C250   1.407   1_545  A
C249        H258   1.083       .  S
C250        C251   1.402       .  A
C250        C253   1.487       .  S
C251        C252   1.401       .  A
C251        H259   1.083       .  S
C252        H260   1.083       .  S
C253        H261   1.087       .  S
C253        C254   1.347   1_565  D
C254        H262   1.086       .  S
C255        H263   1.087       .  S
C255        C256   1.345   1_545  D
C256        H264   1.087       .  S
C265        C266   1.401       .  A
C265        C270   1.408   1_565  A
C265        C273   1.484       .  S
C266        C267   1.399       .  A
C266        H275   1.083       .  S
C267        C268   1.409       .  A
C267        H276   1.082       .  S
C268        C269   1.404   1_565  A
C268        C271   1.491       .  S
C269        C270   1.401       .  A
C269        H277   1.083       .  S
C270        H278   1.083       .  S
C271        H279   1.087   1_565  S
C271        C272   1.344       .  D
C272        H280   1.086       .  S
C273        H281   1.087       .  S
C273        C274   1.343   1_565  D
C274        H282   1.086       .  S
C283        C284   1.401       .  A
C283        C288   1.409   1_545  A
C283        C291   1.490       .  S
C284        C285   1.400       .  A
C284        H293   1.083       .  S
C285        C286   1.411       .  A
C285        H294   1.080       .  S
C286        C287   1.404   1_545  A
C286        C289   1.491   1_545  S
C287        C288   1.399       .  A
C287        H295   1.084       .  S
C288        H296   1.082       .  S
C289        H297   1.087       .  S
C289        C290   1.346   1_565  D
C290        H298   1.083       .  S
C291        H299   1.086       .  S
C291        C292   1.345       .  D
C292        H300   1.086       .  S
C301        C302   1.402   1_655  A
C301        C306   1.409       .  A
C301        C309   1.487       .  S
C302        C303   1.399       .  A
C302        H311   1.083       .  S
C303        C304   1.409   1_455  A
C303        H312   1.081       .  S
C304        C305   1.401       .  A
C304        C307   1.485       .  S
C305        C306   1.397       .  A
C305        H313   1.083       .  S
C306        H314   1.081       .  S
C307        H315   1.087       .  S
C307        C308   1.343   1_655  D
C308        H316   1.085       .  S
C309        H317   1.087       .  S
C309        C310   1.344   1_655  D
C310        H318   1.085       .  S
C319        C320   1.403   1_655  A
C319        C324   1.407       .  A
C319        C327   1.486       .  S
C320        C321   1.398       .  A
C320        H329   1.083       .  S
C321        C322   1.407   1_455  A
C321        H330   1.082       .  S
C322        C323   1.403       .  A
C322        C325   1.483       .  S
C323        C324   1.398       .  A
C323        H331   1.084       .  S
C324        H332   1.082       .  S
C325        H333   1.088       .  S
C325        C326   1.345   1_655  D
C326        H334   1.085       .  S
C327        H335   1.087   1_655  S
C327        C328   1.345       .  D
C328        H336   1.086       .  S
C337        C338   1.402   1_655  A
C337        C342   1.408       .  A
C337        C345   1.488       .  S
C338        C339   1.399       .  A
C338        H347   1.083       .  S
C339        C340   1.409   1_455  A
C339        H348   1.081       .  S
C340        C341   1.404       .  A
C340        C343   1.489       .  S
C341        C342   1.400       .  A
C341        H349   1.083       .  S
C342        H350   1.082       .  S
C343        H351   1.087       .  S
C343        C344   1.346   1_655  D
C344        H352   1.084       .  S
C345        H353   1.087       .  S
C345        C346   1.345       .  D
C346        H354   1.086       .  S
C355        C356   1.403       .  A
C355        C360   1.407   1_455  A
C355        C363   1.483       .  S
C356        C357   1.399       .  A
C356        H365   1.083       .  S
C357        C358   1.406       .  A
C357        H366   1.083       .  S
C358        C359   1.403   1_455  A
C358        C361   1.485       .  S
C359        C360   1.401       .  A
C359        H367   1.083       .  S
C360        H368   1.083       .  S
C361        H369   1.087   1_455  S
C361        C362   1.342       .  D
C362        H370   1.087       .  S
C363        H371   1.087       .  S
C363        C364   1.345   1_455  D
C364        H372   1.086       .  S
