geometry optimzed in LAMMPS
_audit_creation_date              2020-11-30 
_audit_creation_method            'lammps2cif' 
_symmetry_space_group_name_H-M    'P1' 
_symmetry_Int_Tables_number       1 
_symmetry_cell_setting            triclinic 
loop_ 
_symmetry_equiv_pos_as_xyz 
  x,y,z 
_cell_length_a                    27.76569509 
_cell_length_b                    27.765264000120506 
_cell_length_c                    27.498339316632887 
_cell_angle_alpha                 90.00006128735555 
_cell_angle_beta                  89.98944479239162 
_cell_angle_gamma                 90.04992401770102 
loop_ 
_atom_site_label 
_atom_site_type_symbol 
_atom_site_fract_x 
_atom_site_fract_y 
_atom_site_fract_z 
_atom_site_charge 
N1          N  0.00522139  0.44628903  0.05553371    -0.34500
N2          N  0.00318144  0.44569834  0.94811110    -0.55000
N3          N  0.00524017  0.54998997  0.94762359    -0.34400
N4          N  0.00163676  0.55070475  0.05494254    -0.55000
C5          C  0.99703471  0.39896886  0.04696110     0.29100
C6          C  0.99652576  0.45447790  0.10340013     0.29100
C7          C  0.99752206  0.54173370  0.89959091     0.29100
C8          C  0.99741271  0.59739969  0.95588618     0.29100
C9          C  0.00898829  0.39804307  0.95636537     0.37800
C10         C  0.00859507  0.45250058  0.89961217     0.37800
C11         C  0.00633646  0.54391202  0.10354441     0.37800
C12         C  0.00715599  0.59847327  0.04678453     0.37800
C13         C  0.98390801  0.37661098  0.09015624    -0.19700
C14         C  0.98363429  0.41154363  0.12566842    -0.19700
C15         C  0.98540027  0.58468486  0.87697370    -0.19700
C16         C  0.98540143  0.61972796  0.91236144    -0.19700
C17         C  0.01775112  0.37441916  0.91276861    -0.20800
C18         C  0.01742852  0.40884320  0.87690627    -0.20800
C19         C  0.01407934  0.58770781  0.12641096    -0.20800
C20         C  0.01465930  0.62217054  0.09056887    -0.20800
C21         C  0.00299048  0.37485782  0.00186886    -0.16100
C22         C  0.00144603  0.49917844  0.12792427    -0.16100
C23         C  0.00282237  0.62162439  0.00099803    -0.16100
C24         C  0.00305981  0.49705831  0.87516182    -0.16100
H25         H  0.97544580  0.33893735  0.09563369     0.16800
H26         H  0.97484208  0.40590636  0.16359462     0.16800
H27         H  0.97756766  0.59032513  0.83883995     0.16800
H28         H  0.97753902  0.65746801  0.90656872     0.16800
H29         H  0.02312746  0.33620677  0.90722092     0.15100
H30         H  0.02260264  0.40235872  0.83844778     0.15100
H31         H  0.01856275  0.59423796  0.16494940     0.15100
H32         H  0.01961535  0.66043083  0.09621918     0.15100
H33         H  0.02043221  0.47029551  0.03114860     0.28300
H34         H  0.01974242  0.52601138  0.97241318     0.25900
N35         N  0.99690067  0.55119355  0.55528555    -0.34500
N36         N  0.00116289  0.55198592  0.44761272    -0.55000
N37         N  0.00630801  0.44761298  0.44784210    -0.34400
N38         N  0.00126671  0.44678149  0.55550797    -0.55000
C39         C  0.00026306  0.59921574  0.54733666     0.29100
C40         C  0.00061857  0.54373033  0.60398578     0.29100
C41         C  0.00050277  0.45521744  0.39935819     0.29100
C42         C  0.00038716  0.39984063  0.45600816     0.29100
C43         C  0.99887287  0.60000472  0.45543319     0.37800
C44         C  0.00205295  0.54540726  0.39880511     0.37800
C45         C  0.00084616  0.45338417  0.60431443     0.37800
C46         C  0.00359124  0.39878460  0.54769695     0.37800
C47         C  0.00512106  0.62264601  0.59170839    -0.19700
C48         C  0.00532399  0.58780567  0.62725149    -0.19700
C49         C  0.99209212  0.41151424  0.37647168    -0.19700
C50         C  0.99196010  0.37675077  0.41202235    -0.19700
C51         C  0.99818849  0.62406654  0.41116582    -0.20800
C52         C  0.00031255  0.58959403  0.37544032    -0.20800
C53         C  0.00280906  0.40917932  0.62765957    -0.20800
C54         C  0.00461981  0.37470286  0.59192705    -0.20800
C55         C  0.99868586  0.62298064  0.50155373    -0.16100
C56         C  0.00016693  0.49855608  0.62837866    -0.16100
C57         C  0.00275323  0.37588858  0.50160698    -0.16100
C58         C  0.00199070  0.50022681  0.37479761    -0.16100
H59         H  0.00850832  0.66098546  0.59797091     0.16800
H60         H  0.00897665  0.59430287  0.66588695     0.16800
H61         H  0.98586887  0.40528114  0.33812967     0.16800
H62         H  0.98573557  0.33871825  0.40607536     0.16800
H63         H  0.99643154  0.66254283  0.40511866     0.15100
H64         H  0.99992642  0.59634567  0.33667597     0.15100
H65         H  0.00325082  0.40239452  0.66641689     0.15100
H66         H  0.00617432  0.33621204  0.59793564     0.15100
H67         H  0.98931858  0.52562148  0.52908280     0.28300
H68         H  0.01741970  0.47263809  0.47341362     0.28300
Zn69       Zn  0.04059103  0.04051068  0.03956924     1.49700
Zn70       Zn  0.04149362  0.95755820  0.96137937     1.49400
Zn71       Zn  0.95772605  0.95626535  0.03896240     1.49100
Zn72       Zn  0.95735760  0.03984361  0.96143376     1.49500
O73         O  0.99928133  0.99853513  0.00041560    -1.82000
O74         O  0.11170231  0.02897642  0.02834598    -0.72600
O75         O  0.02915814  0.88658479  0.97174230    -0.72400
O76         O  0.97145450  0.96884492  0.10849052    -0.71900
O77         O  0.11211845  0.96971256  0.97411156    -0.72600
O78         O  0.02733905  0.02689810  0.10888118    -0.72200
O79         O  0.97003903  0.88556346  0.02616326    -0.72800
O80         O  0.88678492  0.02771652  0.97345345    -0.72200
O81         O  0.02900861  0.97148351  0.89197793    -0.72900
O82         O  0.88670548  0.96869095  0.02794996    -0.72300
O83         O  0.97023785  0.02645837  0.89206131    -0.72800
O84         O  0.96923288  0.11066548  0.97275082    -0.72700
O85         O  0.02749287  0.11109141  0.02810172    -0.72500
C86         C  0.13419177  0.99929852  0.00145598     0.79300
C87         C  0.99964141  0.86379863  0.99857835     0.79800
C88         C  0.99944432  0.99768858  0.13053619     0.78700
C89         C  0.86448394  0.99835678  0.00082333     0.79100
C90         C  0.99965539  0.99903949  0.87016501     0.80300
C91         C  0.99816774  0.13311245  0.00047691     0.79300
Zn92       Zn  0.04116986  0.95789787  0.53958247     1.49700
Zn93       Zn  0.95844055  0.04162662  0.53897409     1.49400
Zn94       Zn  0.04137206  0.04047147  0.46075126     1.49100
Zn95       Zn  0.95783882  0.95751963  0.46184481     1.49500
O96         O  0.99974183  0.99938988  0.50032530    -1.82000
O97         O  0.02778656  0.97156365  0.60892229    -0.72600
O98         O  0.97130075  0.11220845  0.52704504    -0.72400
O99         O  0.11211839  0.02763326  0.47177983    -0.71900
O100        O  0.97106371  0.02865557  0.60852201    -0.72600
O101        O  0.11201965  0.96972127  0.52752237    -0.72200
O102        O  0.02991768  0.11138539  0.47207802    -0.72800
O103        O  0.97086072  0.96968927  0.39230385    -0.72200
O104        O  0.88777319  0.02979198  0.52720181    -0.72900
O105        O  0.02745030  0.02698761  0.39156557    -0.72300
O106        O  0.88736133  0.97022107  0.47328709    -0.72800
O107        O  0.96928360  0.88693580  0.47426485    -0.72700
O108        O  0.02848619  0.88709265  0.52855457    -0.72500
C109        C  0.99929912  0.00014781  0.63058345     0.79300
C110        C  0.00085336  0.13404072  0.49946646     0.79800
C111        C  0.13432980  0.99848078  0.49945073     0.78700
C112        C  0.99904472  0.99816645  0.37008471     0.79100
C113        C  0.86536214  0.00012345  0.50025829     0.80300
C114        C  0.99868364  0.86477920  0.50165679     0.79300
N115        N  0.55170240  0.00300309  0.05365588    -0.34500
N116        N  0.55120519  0.00231239  0.94639474    -0.55000
N117        N  0.44704287  0.00360296  0.94718726    -0.34400
N118        N  0.44770952  0.99938371  0.05459035    -0.55000
C119        C  0.59880146  0.99456043  0.04438243     0.29100
C120        C  0.54403132  0.99383749  0.10150992     0.29100
C121        C  0.45492010  0.99541932  0.89916876     0.29100
C122        C  0.40013140  0.99382213  0.95631581     0.29100
C123        C  0.59885869  0.00880376  0.95423869     0.37800
C124        C  0.54376371  0.00856409  0.89810241     0.37800
C125        C  0.45521216  0.00604248  0.10284309     0.37800
C126        C  0.40005250  0.00583677  0.04677747     0.37800
C127        C  0.62146148  0.98023553  0.08702033    -0.19700
C128        C  0.58696021  0.97981329  0.12298860    -0.19700
C129        C  0.41219280  0.98110661  0.87740246    -0.19700
C130        C  0.37770008  0.98007726  0.91336854    -0.19700
C131        C  0.62185748  0.01883690  0.91057692    -0.20800
C132        C  0.58702216  0.01860605  0.87508315    -0.20800
C133        C  0.41200669  0.01618255  0.12585049    -0.20800
C134        C  0.37711626  0.01604585  0.09041673    -0.20800
C135        C  0.62256609  0.00224624  0.99938664    -0.16100
C136        C  0.50001359  0.00037809  0.12678340    -0.16100
C137        C  0.37632645  0.99956008  0.00159619    -0.16100
C138        C  0.49907593  0.00221453  0.87410087    -0.16100
H139        H  0.65912800  0.97146792  0.09190283     0.16800
H140        H  0.59294305  0.97061878  0.16075845     0.16800
H141        H  0.40638407  0.97236036  0.83949453     0.16800
H142        H  0.34023790  0.97048728  0.90834518     0.16800
H143        H  0.65993258  0.02490243  0.90473150     0.15100
H144        H  0.59298712  0.02453997  0.83664762     0.15100
H145        H  0.40614298  0.02260166  0.16421839     0.15100
H146        H  0.33908703  0.02234296  0.09623333     0.15100
H147        H  0.52772170  0.01936576  0.02993877     0.28300
H148        H  0.47077629  0.01969200  0.97136025     0.28300
N149        N  0.55263750  0.00543232  0.44752319    -0.34500
N150        N  0.44814007  0.99984796  0.44591516    -0.55000
N151        N  0.44759594  0.99475091  0.55356164    -0.34400
N152        N  0.55210368  0.00031559  0.55519283    -0.55000
C153        C  0.54580257  0.00257249  0.39868169     0.29100
C154        C  0.60056266  0.00224759  0.45603916     0.29100
C155        C  0.39978365  0.99946243  0.54490495     0.29100
C156        C  0.45456591  0.99955496  0.60224654     0.29100
C157        C  0.45542352  0.00101908  0.39720498     0.37800
C158        C  0.40002156  0.99747129  0.45307865     0.37800
C159        C  0.60023825  0.00203950  0.54799453     0.37800
C160        C  0.54487459  0.99896810  0.60388303     0.37800
C161        C  0.59021719  0.99896378  0.37588351    -0.19700
C162        C  0.62459074  0.99869948  0.41185751    -0.19700
C163        C  0.37599526  0.00611530  0.58883251    -0.19700
C164        C  0.41038102  0.00613722  0.62480297    -0.19700
C165        C  0.41153048  0.99934737  0.37325684    -0.20800
C166        C  0.37656079  0.99707486  0.40849811    -0.20800
C167        C  0.62375893  0.00201508  0.59255843    -0.20800
C168        C  0.58879662  0.00007717  0.62782494    -0.20800
C169        C  0.50092382  0.00249203  0.37372506    -0.16100
C170        C  0.62375079  0.00242654  0.50215587    -0.16100
C171        C  0.49936690  0.99844500  0.62730033    -0.16100
C172        C  0.37644942  0.99761983  0.49889006    -0.16100
H173        H  0.59724656  0.99616236  0.33727207     0.16800
H174        H  0.66302203  0.99576315  0.40598378     0.16800
H175        H  0.33772804  0.01094927  0.59449598     0.16800
H176        H  0.40354621  0.01106986  0.66323314     0.16800
H177        H  0.40526182  0.99961724  0.33441120     0.15100
H178        H  0.33815150  0.99572030  0.40193195     0.15100
H179        H  0.66218308  0.00317493  0.59909329     0.15100
H180        H  0.59507620  0.99988020  0.66667150     0.15100
H181        H  0.52658857  0.01194638  0.47357427     0.28300
H182        H  0.47323344  0.98509296  0.52801845     0.28300
C183        C  0.49867516  0.00101017  0.82083875    -0.16400
C184        C  0.49843657  0.00006755  0.77666004     0.07700
C185        C  0.49835177  0.99926772  0.72479228     0.09600
C186        C  0.49857937  0.99886430  0.68060375    -0.17200
C187        C  0.50084410  0.00052932  0.18007684    -0.16400
C188        C  0.50143140  0.00100329  0.22427886     0.07700
C189        C  0.50178251  0.00163949  0.27618004     0.09600
C190        C  0.50165374  0.00209221  0.32038801    -0.17200
C191        C  0.18612838  0.99803101  0.49897989    -0.16400
C192        C  0.22961415  0.99775253  0.49869529     0.07700
C193        C  0.28056259  0.99760587  0.49860767     0.09600
C194        C  0.32406406  0.99761423  0.49870228    -0.17200
C195        C  0.81368585  0.00029032  0.50044610    -0.16400
C196        C  0.77027568  0.00049524  0.50098599     0.07700
C197        C  0.71945335  0.00098703  0.50182749     0.09600
C198        C  0.67602803  0.00162355  0.50229379    -0.17200
C199        C  0.18601635  0.99901592  0.00199374    -0.16400
C200        C  0.22951235  0.99841681  0.00209979     0.07700
C201        C  0.28047664  0.99798662  0.00194605     0.09600
C202        C  0.32398250  0.99831433  0.00174742    -0.17200
C203        C  0.81270508  0.99889750  0.00102572    -0.16400
C204        C  0.76924864  0.99999823  0.00063811     0.07700
C205        C  0.71835090  0.00132578  0.99993906     0.09600
C206        C  0.67487993  0.00199946  0.99947672    -0.17200
C207        C  0.99968061  0.99921825  0.81890375    -0.16400
C208        C  0.99944404  0.99956391  0.77561036     0.07700
C209        C  0.99910550  0.00001043  0.72515358     0.09600
C210        C  0.99903370  0.00021443  0.68185541    -0.17200
C211        C  0.99945892  0.99735688  0.18180343    -0.16400
C212        C  0.99926658  0.99730089  0.22509794     0.07700
C213        C  0.99894746  0.99745657  0.27554868     0.09600
C214        C  0.99884624  0.99773315  0.31883714    -0.17200
C215        C  0.99823421  0.81305341  0.50214111    -0.16400
C216        C  0.99792980  0.76961208  0.50226893     0.07700
C217        C  0.99789732  0.71873993  0.50218707     0.09600
C218        C  0.99817977  0.67528747  0.50197077    -0.17200
C219        C  0.00250518  0.32357223  0.50098363    -0.16400
C220        C  0.00234477  0.28011711  0.50029054     0.07700
C221        C  0.00197241  0.22923622  0.49960681     0.09600
C222        C  0.00149295  0.18578656  0.49934963    -0.17200
C223        C  0.00207312  0.49695304  0.82189939    -0.16400
C224        C  0.00148964  0.49728397  0.77772322     0.07700
C225        C  0.00106548  0.49800971  0.72586642     0.09600
C226        C  0.00074429  0.49853870  0.68168419    -0.17200
C227        C  0.00039989  0.49918021  0.18121105    -0.16400
C228        C  0.00006266  0.49928584  0.22540660     0.07700
C229        C  0.00025358  0.49960478  0.27729142     0.09600
C230        C  0.00084052  0.49994607  0.32148437    -0.17200
C231        C  0.00251975  0.67400861  0.00023221    -0.16400
C232        C  0.00192115  0.71751141  0.99922048     0.07700
C233        C  0.00086372  0.76847076  0.99823385     0.09600
C234        C  0.00005316  0.81196900  0.99801435    -0.17200
C235        C  0.00115935  0.32258918  0.00206776    -0.16400
C236        C  0.99959145  0.27915712  0.00173114     0.07700
C237        C  0.99823622  0.22829388  0.00107039     0.09600
C238        C  0.99780909  0.18484936  0.00062088    -0.17200
loop_ 
_geom_bond_atom_site_label_1 
_geom_bond_atom_site_label_2 
_geom_bond_distance 
_geom_bond_site_symmetry_2 
_ccdc_geom_bond_type 
N1            C6   1.357   1_455  A
N1            C5   1.354   1_455  A
N1           H33   1.035       .  S
N2            C9   1.352       .  A
N2           C10   1.355       .  A
N3            C8   1.354   1_455  A
N3            C7   1.358   1_455  A
N3           H34   1.035       .  S
N4           C11   1.356       .  A
N4           C12   1.354       .  A
C5           C13   1.389       .  A
C5           C21   1.419   1_655  A
C6           C22   1.419   1_655  A
C6           C14   1.387       .  A
C7           C15   1.387       .  A
C7           C24   1.419   1_655  A
C8           C23   1.419   1_656  A
C8           C16   1.389       .  A
C9           C21   1.417   1_556  A
C9           C17   1.388       .  A
C10          C24   1.417       .  A
C10          C18   1.386       .  A
C11          C19   1.386       .  A
C11          C22   1.418       .  A
C12          C20   1.388       .  A
C12          C23   1.419       .  A
C13          C14   1.376       .  A
C13          H25   1.082       .  S
C14          H26   1.082       .  S
C15          C16   1.376       .  A
C15          H27   1.082       .  S
C16          H28   1.082       .  S
C17          C18   1.373       .  A
C17          H29   1.082       .  S
C18          H30   1.082       .  S
C19          C20   1.374       .  A
C19          H31   1.082       .  S
C20          H32   1.082       .  S
C21         C235   1.452       .  S
C22         C227   1.466       .  S
C23         C231   1.455       .  S
C24         C223   1.465       .  S
N35          C40   1.359   1_655  A
N35          C39   1.354   1_655  A
N35          H67   1.033       .  S
N36          C43   1.352   1_455  A
N36          C44   1.355       .  A
N37          C42   1.355       .  A
N37          C41   1.359       .  A
N37          H68   1.035       .  S
N38          C45   1.355       .  A
N38          C46   1.351       .  A
C39          C47   1.389       .  A
C39          C55   1.422   1_455  A
C40          C56   1.422       .  A
C40          C48   1.387       .  A
C41          C49   1.387   1_455  A
C41          C58   1.421       .  A
C42          C57   1.421       .  A
C42          C50   1.389   1_455  A
C43          C55   1.420       .  A
C43          C51   1.389       .  A
C44          C58   1.418       .  A
C44          C52   1.386       .  A
C45          C53   1.386       .  A
C45          C56   1.418       .  A
C46          C54   1.388       .  A
C46          C57   1.418       .  A
C47          C48   1.375       .  A
C47          H59   1.082       .  S
C48          H60   1.082       .  S
C49          C50   1.374       .  A
C49          H61   1.082       .  S
C50          H62   1.082       .  S
C51          C52   1.373   1_655  A
C51          H63   1.082       .  S
C52          H64   1.082   1_455  S
C53          C54   1.373       .  A
C53          H65   1.082       .  S
C54          H66   1.082       .  S
C55         C218   1.452       .  S
C56         C226   1.466       .  S
C57         C219   1.453       .  S
C58         C230   1.466       .  S
Zn69         O73   1.957   1_445  S
Zn69         O74   2.024       .  S
Zn69         O78   1.977       .  S
Zn69         O85   2.018       .  S
Zn70         O73   1.955   1_456  S
Zn70         O75   2.020       .  S
Zn70         O77   2.020       .  S
Zn70         O81   1.978       .  S
Zn71         O73   1.957       .  S
Zn71         O76   1.981       .  S
Zn71         O79   2.024       .  S
Zn71         O82   2.025       .  S
Zn72         O73   1.955   1_546  S
Zn72         O80   2.015       .  S
Zn72         O83   1.976       .  S
Zn72         O84   2.018       .  S
O74          C86   1.271   1_545  A
O75          C87   1.271   1_455  A
O76          C88   1.270       .  A
O77          C86   1.271   1_556  A
O78          C88   1.269   1_445  A
O79          C87   1.272   1_554  A
O80          C89   1.270   1_546  A
O81          C90   1.269   1_455  A
O82          C89   1.271       .  A
O83          C90   1.269   1_545  A
O84          C91   1.271   1_556  A
O85          C91   1.271   1_455  A
C86         C199   1.439       .  S
C87         C234   1.439   1_655  S
C88         C211   1.410       .  S
C89         C203   1.438       .  S
C90         C207   1.410       .  S
C91         C238   1.437       .  S
Zn92         O96   1.954   1_455  S
Zn92         O97   1.979       .  S
Zn92        O101   2.021       .  S
Zn92        O108   2.020       .  S
Zn93         O96   1.955   1_545  S
Zn93         O98   2.019       .  S
Zn93        O100   1.977       .  S
Zn93        O104   2.015       .  S
Zn94         O96   1.954   1_445  S
Zn94         O99   2.020       .  S
Zn94        O102   2.019       .  S
Zn94        O105   1.977       .  S
Zn95         O96   1.955       .  S
Zn95        O103   1.975       .  S
Zn95        O106   2.013       .  S
Zn95        O107   2.015       .  S
O97         C109   1.269   1_465  A
O98         C110   1.271   1_655  A
O99         C111   1.271   1_545  A
O100        C109   1.269       .  A
O101        C111   1.271       .  A
O102        C110   1.271       .  A
O103        C112   1.269       .  A
O104        C113   1.270       .  A
O105        C112   1.269   1_445  A
O106        C113   1.270   1_565  A
O107        C114   1.270       .  A
O108        C114   1.271   1_455  A
C109        C210   1.410       .  S
C110        C222   1.437       .  S
C111        C191   1.438       .  S
C112        C214   1.409       .  S
C113        C195   1.435       .  S
C114        C215   1.436       .  S
N115        C120   1.357   1_545  A
N115        C119   1.353   1_545  A
N115        H147   1.037       .  S
N116        C123   1.353       .  A
N116        C124   1.355       .  A
N117        C122   1.354   1_545  A
N117        C121   1.358   1_545  A
N117        H148   1.037       .  S
N118        C125   1.356   1_565  A
N118        C126   1.353   1_565  A
C119        C127   1.389       .  A
C119        C135   1.418   1_564  A
C120        C136   1.418   1_565  A
C120        C128   1.386       .  A
C121        C129   1.387       .  A
C121        C138   1.419   1_565  A
C122        C137   1.419   1_556  A
C122        C130   1.389       .  A
C123        C135   1.417       .  A
C123        C131   1.388       .  A
C124        C138   1.416       .  A
C124        C132   1.386       .  A
C125        C133   1.385       .  A
C125        C136   1.416       .  A
C126        C134   1.388       .  A
C126        C137   1.417   1_545  A
C127        C128   1.377       .  A
C127        H139   1.082       .  S
C128        H140   1.082       .  S
C129        C130   1.377       .  A
C129        H141   1.082       .  S
C130        H142   1.082       .  S
C131        C132   1.374       .  A
C131        H143   1.082       .  S
C132        H144   1.082       .  S
C133        C134   1.374       .  A
C133        H145   1.082       .  S
C134        H146   1.082       .  S
C135        C206   1.453       .  S
C136        C187   1.466       .  S
C137        C202   1.454       .  S
C138        C183   1.465       .  S
N149        C154   1.354       .  A
N149        C153   1.359       .  A
N149        H181   1.034       .  S
N150        C157   1.355   1_565  A
N150        C158   1.352       .  A
N151        C156   1.359       .  A
N151        C155   1.355       .  A
N151        H182   1.035       .  S
N152        C159   1.352       .  A
N152        C160   1.354   1_545  A
C153        C161   1.387   1_545  A
C153        C169   1.423       .  A
C154        C170   1.422       .  A
C154        C162   1.389   1_545  A
C155        C163   1.389   1_565  A
C155        C172   1.423       .  A
C156        C171   1.422       .  A
C156        C164   1.387   1_565  A
C157        C169   1.419       .  A
C157        C165   1.386   1_545  A
C158        C172   1.420       .  A
C158        C166   1.388       .  A
C159        C167   1.389       .  A
C159        C170   1.419       .  A
C160        C168   1.386   1_565  A
C160        C171   1.418       .  A
C161        C162   1.375       .  A
C161        H173   1.082       .  S
C162        H174   1.082       .  S
C163        C164   1.375       .  A
C163        H175   1.082       .  S
C164        H176   1.082       .  S
C165        C166   1.373       .  A
C165        H177   1.082       .  S
C166        H178   1.082       .  S
C167        C168   1.373       .  A
C167        H179   1.082       .  S
C168        H180   1.082   1_545  S
C169        C190   1.467       .  S
C170        C198   1.452       .  S
C171        C186   1.466       .  S
C172        C194   1.455       .  S
C183        C184   1.215       .  T
C184        C185   1.426   1_545  S
C185        C186   1.215       .  T
C187        C188   1.216       .  T
C188        C189   1.427       .  S
C189        C190   1.216       .  T
C191        C192   1.207       .  T
C192        C193   1.415       .  S
C193        C194   1.208       .  T
C195        C196   1.205       .  T
C196        C197   1.411       .  S
C197        C198   1.206       .  T
C199        C200   1.208       .  T
C200        C201   1.415       .  S
C201        C202   1.208       .  T
C203        C204   1.207       .  T
C204        C205   1.414   1_564  S
C205        C206   1.207       .  T
C207        C208   1.191       .  T
C208        C209   1.388   1_565  S
C209        C210   1.191       .  T
C211        C212   1.191       .  T
C212        C213   1.387       .  S
C213        C214   1.190       .  T
C215        C216   1.206       .  T
C216        C217   1.412       .  S
C217        C218   1.207       .  T
C219        C220   1.207       .  T
C220        C221   1.413       .  S
C221        C222   1.206       .  T
C223        C224   1.215       .  T
C224        C225   1.426       .  S
C225        C226   1.215       .  T
C227        C228   1.215       .  T
C228        C229   1.427       .  S
C229        C230   1.215       .  T
C231        C232   1.208   1_554  T
C232        C233   1.415       .  S
C233        C234   1.208       .  T
C235        C236   1.207   1_455  T
C236        C237   1.413       .  S
C237        C238   1.206       .  T
