geometry optimzed in LAMMPS
_audit_creation_date              2020-11-30 
_audit_creation_method            'lammps2cif' 
_symmetry_space_group_name_H-M    'P1' 
_symmetry_Int_Tables_number       1 
_symmetry_cell_setting            triclinic 
loop_ 
_symmetry_equiv_pos_as_xyz 
  x,y,z 
_cell_length_a                    27.2438324 
_cell_length_b                    27.25221105966942 
_cell_length_c                    27.247473991064457 
_cell_angle_alpha                 89.9877623405374 
_cell_angle_beta                  90.00513409366539 
_cell_angle_gamma                 89.98190104815205 
loop_ 
_atom_site_label 
_atom_site_type_symbol 
_atom_site_fract_x 
_atom_site_fract_y 
_atom_site_fract_z 
_atom_site_charge 
N1          N  0.99509110  0.49964203  0.42514337    -0.35100
N2          N  0.00127204  0.57584154  0.50057333    -0.55700
N3          N  0.00613739  0.49973453  0.57593536    -0.35100
N4          N  0.00059637  0.42352626  0.50055009    -0.55700
C5          C  0.00004631  0.53965774  0.39604891     0.28500
C6          C  0.99884954  0.45950766  0.39604443     0.28500
C7          C  0.00057316  0.53979388  0.60488057     0.28500
C8          C  0.00079278  0.45965596  0.60487967     0.28500
C9          C  0.00025107  0.60537488  0.46076620     0.37100
C10         C  0.00295377  0.60544157  0.54030646     0.37100
C11         C  0.99882654  0.39391679  0.46082537     0.37100
C12         C  0.00310468  0.39399040  0.54030029     0.37100
C13         C  0.00565480  0.52468639  0.34767681    -0.20400
C14         C  0.00483690  0.47430110  0.34766694    -0.20400
C15         C  0.99290375  0.52489150  0.65297728    -0.20400
C16         C  0.99305196  0.47451753  0.65297872    -0.20400
C17         C  0.00131944  0.65414851  0.47534047    -0.21400
C18         C  0.00304456  0.65418690  0.52563684    -0.21400
C19         C  0.00030031  0.34517185  0.47545862    -0.21400
C20         C  0.00313976  0.34522409  0.52570449    -0.21400
C21         C  0.99975849  0.58938338  0.41138417    -0.16800
C22         C  0.99750132  0.40982584  0.41143025    -0.16800
C23         C  0.00280372  0.40995378  0.58967982    -0.16800
C24         C  0.00236060  0.58951454  0.58969268    -0.16800
H25         H  0.01046861  0.54764846  0.31561720     0.16100
H26         H  0.00897784  0.45120449  0.31561615     0.16100
H27         H  0.98723263  0.54790554  0.68485107     0.16100
H28         H  0.98751044  0.45147469  0.68485876     0.16100
H29         H  0.00104160  0.68642834  0.45218701     0.14400
H30         H  0.00383885  0.68649012  0.54873165     0.14400
H31         H  0.99968529  0.31285884  0.45236974     0.14400
H32         H  0.00447125  0.31295673  0.54883586     0.14400
H33         H  0.98621533  0.49975869  0.46205115     0.27700
H34         H  0.01686093  0.49971163  0.53948748     0.27700
O35         O  0.99794038  0.13967864  0.08137822    -0.78600
O36         O  0.00064229  0.85936525  0.08087319    -0.80200
O37         O  0.91865252  0.99992203  0.14085220    -0.77200
O38         O  0.07914716  0.99914038  0.14170312    -0.75600
O39         O  0.13897306  0.99934958  0.08255888    -0.77400
O40         O  0.85922117  0.00049027  0.08130103    -0.78300
O41         O  0.00024690  0.91878866  0.14040411    -0.79600
O42         O  0.99753885  0.08011104  0.14081346    -0.79900
Eu43       Eu  0.99911888  0.99965129  0.10029815     2.39200
O44         O  0.04917231  0.94998205  0.05063267    -0.87400
O45         O  0.94955324  0.04958570  0.05028815    -0.91000
C46         C  0.99722841  0.12517955  0.12643690     1.03700
C47         C  0.00074749  0.87373419  0.12595244     1.03500
C48         C  0.87361002  0.00026480  0.12639189     1.03400
C49         C  0.12429873  0.99900635  0.12757503     1.01300
H50         H  0.92891009  0.92908800  0.07096696     0.31000
O51         O  0.94932256  0.94962161  0.05052613    -0.99800
H52         H  0.06960694  0.07052072  0.07153725     0.31100
O53         O  0.04928720  0.04998742  0.05100335    -1.02400
O54         O  0.99999310  0.85987184  0.91980476    -0.79600
O55         O  0.99954413  0.13990501  0.91989997    -0.79100
O56         O  0.85921091  0.91912995  0.00056155    -0.77600
O57         O  0.13997266  0.91956547  0.00219433    -0.80900
O58         O  0.13970625  0.08055531  0.99967442    -0.78800
O59         O  0.85929187  0.08050917  0.00108725    -0.77400
O60         O  0.91924690  0.99865846  0.86053534    -0.78900
O61         O  0.08091491  0.00026362  0.86117716    -0.80900
O62         O  0.85957133  0.99865765  0.91988483    -0.77600
O63         O  0.14017108  0.00039682  0.92094789    -0.80300
O64         O  0.91891176  0.85981171  0.99997466    -0.76000
O65         O  0.91880120  0.13998418  0.00103784    -0.76000
O66         O  0.08011991  0.13997298  0.99894321    -0.75700
O67         O  0.08048959  0.86007266  0.00169821    -0.79200
O68         O  0.99984212  0.91940569  0.86035756    -0.78600
O69         O  0.00018664  0.08041099  0.86043117    -0.76900
Eu70       Eu  0.99962256  0.90021150  0.00050404     2.39800
Eu71       Eu  0.99943774  0.09950224  0.00057506     2.39600
Eu72       Eu  0.89970292  0.99976532  0.00059874     2.38400
Eu73       Eu  0.09927574  0.00000240  0.00133488     2.39900
Eu74       Eu  0.99989405  0.99988064  0.90103741     2.39800
O75         O  0.04955318  0.04963151  0.95111153    -0.91300
O76         O  0.94980486  0.95012965  0.95070781    -0.90200
C77         C  0.00001362  0.87432891  0.87474046     1.03800
C78         C  0.99988000  0.12546843  0.87484095     1.02500
C79         C  0.87378013  0.87409900  0.00020420     1.01900
C80         C  0.12556624  0.87450986  0.00227018     1.03900
C81         C  0.12522503  0.12558898  0.99877420     1.02900
C82         C  0.87372030  0.12558263  0.00127295     1.01700
C83         C  0.87413348  0.99833801  0.87486727     1.01800
C84         C  0.12593921  0.00039297  0.87581232     1.04400
H85         H  0.92908997  0.07006954  0.93009515     0.31800
O86         O  0.94957053  0.04967286  0.95062751    -1.03500
H87         H  0.07040731  0.92967523  0.93065387     0.33800
O88         O  0.04979921  0.95010017  0.95100318    -1.06100
N89         N  0.49995323  0.99098614  0.42581624    -0.35100
N90         N  0.42373452  0.99714354  0.50100222    -0.55700
N91         N  0.49973017  0.00572415  0.57617547    -0.35100
N92         N  0.57597461  0.99926545  0.50096248    -0.55700
C93         C  0.45987505  0.99626987  0.39680251     0.28500
C94         C  0.54000462  0.99638487  0.39681519     0.28500
C95         C  0.45976921  0.00001075  0.60524591     0.28500
C96         C  0.53988411  0.00142829  0.60521841     0.28500
C97         C  0.39417808  0.99430652  0.46128994     0.37100
C98         C  0.39409230  0.99920955  0.54069297     0.37100
C99         C  0.60563388  0.99634536  0.46133922     0.37100
C100        C  0.60553246  0.00260423  0.54062810     0.37100
C101        C  0.47475456  0.00393302  0.34869846    -0.20400
C102        C  0.52513226  0.00394659  0.34869806    -0.20400
C103        C  0.47478301  0.99329115  0.65345442    -0.20400
C104        C  0.52515277  0.99418460  0.65343915    -0.20400
C105        C  0.34539219  0.99435299  0.47587862    -0.21400
C106        C  0.34533601  0.99756811  0.52609520    -0.21400
C107        C  0.65439660  0.99785176  0.47592931    -0.21400
C108        C  0.65433225  0.00199355  0.52607229    -0.21400
C109        C  0.41014403  0.99429664  0.41192995    -0.16800
C110        C  0.58970816  0.99477597  0.41200893    -0.16800
C111        C  0.58955507  0.00363323  0.58996748    -0.16800
C112        C  0.41003061  0.00059861  0.59004153    -0.16800
H113        H  0.45171273  0.00952593  0.31681804     0.16100
H114        H  0.54817781  0.00962852  0.31684077     0.16100
H115        H  0.45185238  0.98760720  0.68539444     0.16100
H116        H  0.54829194  0.98930615  0.68536904     0.16100
H117        H  0.31311735  0.99281803  0.45275771     0.14400
H118        H  0.31302069  0.99830211  0.54919475     0.14400
H119        H  0.68671600  0.99661643  0.45285491     0.14400
H120        H  0.68660805  0.00376862  0.54917610     0.14400
H121        H  0.50001729  0.98044172  0.46235421     0.27700
H122        H  0.49956433  0.01568592  0.53948530     0.27700
N123        N  0.49889902  0.42456125  0.99169927    -0.35100
N124        N  0.42329260  0.50026032  0.00062460    -0.55700
N125        N  0.49994334  0.57506188  0.00652011    -0.35100
N126        N  0.57553870  0.49946672  0.99769849    -0.55700
C127        C  0.45870589  0.39567413  0.99641773     0.28500
C128        C  0.53885835  0.39523677  0.99594444     0.28500
C129        C  0.45990952  0.60433753  0.00274687     0.28500
C130        C  0.54000207  0.60392409  0.00055772     0.28500
C131        C  0.39343811  0.46074882  0.99838815     0.37100
C132        C  0.39397342  0.54007379  0.00442118     0.37100
C133        C  0.60487814  0.45957581  0.99521828     0.37100
C134        C  0.60536798  0.53901858  0.99947513     0.37100
C135        C  0.47336877  0.34722223  0.00210657    -0.20400
C136        C  0.52375316  0.34695531  0.00188262    -0.20400
C137        C  0.47483199  0.65251491  0.99572176    -0.20400
C138        C  0.52518085  0.65225284  0.99433370    -0.20400
C139        C  0.34477478  0.47558876  0.00074588    -0.21400
C140        C  0.34511788  0.52574304  0.00468557    -0.21400
C141        C  0.65374200  0.47391948  0.99527382    -0.21400
C142        C  0.65404803  0.52416013  0.99799430    -0.21400
C143        C  0.40908074  0.41131241  0.99631937    -0.16800
C144        C  0.58865726  0.41028903  0.99495747    -0.16800
C145        C  0.58966287  0.58845255  0.00052095    -0.16800
C146        C  0.41018299  0.58934172  0.00524952    -0.16800
H147        H  0.45020250  0.31530597  0.00683802     0.16100
H148        H  0.54663421  0.31477767  0.00632054     0.16100
H149        H  0.45183030  0.68460988  0.99132059     0.16100
H150        H  0.54821730  0.68411344  0.98869536     0.16100
H151        H  0.31233209  0.45267715  0.00010292     0.14400
H152        H  0.31298035  0.54899664  0.00698201     0.14400
H153        H  0.68590725  0.45063552  0.99384539     0.14400
H154        H  0.68647247  0.54710033  0.99853252     0.14400
H155        H  0.49898700  0.46148195  0.98280424     0.27700
H156        H  0.49999754  0.53834497  0.01629467     0.27700
C157        C  0.69561361  0.69503899  0.99912267     0.18500
C158        C  0.68249154  0.74456610  0.99474549    -0.10600
C159        C  0.71876093  0.78089167  0.99508592    -0.11400
C160        C  0.76829354  0.76784856  0.99981399     0.20100
C161        C  0.78140801  0.71831063  0.00416262    -0.13500
C162        C  0.74513949  0.68198584  0.00381205    -0.11800
C163        C  0.80558197  0.80526539  0.00010658     0.01100
C164        C  0.83669715  0.83672367  0.00019250    -0.31800
C165        C  0.65832647  0.65765552  0.99913453     0.02400
C166        C  0.62719168  0.62621332  0.99956628    -0.33400
H167        H  0.64429827  0.75506461  0.99113645     0.13500
H168        H  0.70821406  0.81907831  0.99168749     0.13300
H169        H  0.81959015  0.70780141  0.00782771     0.13200
H170        H  0.75567027  0.64379559  0.00725077     0.12200
C171        C  0.76768910  0.23138208  0.00186709     0.18500
C172        C  0.78069482  0.28110724  0.00031983    -0.10600
C173        C  0.74421335  0.31722279  0.99916034    -0.11400
C174        C  0.69458506  0.30376425  0.99954862     0.20100
C175        C  0.68156502  0.25407184  0.00147554    -0.13500
C176        C  0.71804500  0.21795557  0.00263378    -0.11800
C177        C  0.65710476  0.34090738  0.99768251     0.01100
C178        C  0.62591630  0.37226859  0.99617959    -0.31800
C179        C  0.80519690  0.19415168  0.00200796     0.02400
C180        C  0.83649712  0.16285192  0.00171608    -0.33400
H181        H  0.81895768  0.29191401  0.99973940     0.13500
H182        H  0.75466301  0.35555719  0.99773667     0.13300
H183        H  0.64329155  0.24328026  0.00185398     0.13200
H184        H  0.70757287  0.17962519  0.00385329     0.12200
C185        C  0.30467550  0.69638053  0.00561904     0.18500
C186        C  0.25506988  0.68315445  0.00842078    -0.10600
C187        C  0.21868999  0.71936483  0.00773817    -0.11400
C188        C  0.23176088  0.76896195  0.00423705     0.20100
C189        C  0.28138604  0.78219987  0.00142177    -0.13500
C190        C  0.31778039  0.74597387  0.00210636    -0.11800
C191        C  0.19427966  0.80618899  0.00352835     0.01100
C192        C  0.16284495  0.83733285  0.00294832    -0.31800
C193        C  0.34200071  0.65903679  0.00606263     0.02400
C194        C  0.37299411  0.62744623  0.00598675    -0.33400
H195        H  0.24455334  0.64490534  0.01108500     0.13500
H196        H  0.18043974  0.70871738  0.00991656     0.13300
H197        H  0.29190201  0.82044118  0.99868541     0.13200
H198        H  0.35603961  0.75658747  0.99985991     0.12200
C199        C  0.23084927  0.23164441  0.99715988     0.18500
C200        C  0.21738275  0.28117933  0.00020001    -0.10600
C201        C  0.25345803  0.31768485  0.00010488    -0.11400
C202        C  0.30314446  0.30479320  0.99698814     0.20100
C203        C  0.31663119  0.25526838  0.99400905    -0.13500
C204        C  0.28055412  0.21875974  0.99409828    -0.11800
C205        C  0.34025015  0.34231911  0.99678820     0.01100
C206        C  0.37145403  0.37367280  0.99657164    -0.31800
C207        C  0.19369393  0.19411318  0.99730615     0.02400
C208        C  0.16243825  0.16280708  0.99775727    -0.33400
H209        H  0.17906308  0.29154448  0.00262627     0.13500
H210        H  0.24264792  0.35587948  0.00243667     0.13300
H211        H  0.35496108  0.24492259  0.99160403     0.13000
H212        H  0.29138069  0.18057281  0.99177716     0.12200
C213        C  0.69541898  0.00303914  0.69657317     0.18500
C214        C  0.74507727  0.00229773  0.68325190    -0.10600
C215        C  0.78140270  0.00074043  0.71948209    -0.11400
C216        C  0.76820676  0.99989961  0.76917051     0.20100
C217        C  0.71853681  0.00075215  0.78249907    -0.13500
C218        C  0.68220341  0.00230856  0.74625979    -0.11800
C219        C  0.80561078  0.99851104  0.80641614     0.01100
C220        C  0.83697383  0.99800747  0.83760840    -0.31800
C221        C  0.65809360  0.00400820  0.65927004     0.02400
C222        C  0.62693761  0.00415234  0.62785785    -0.33400
H223        H  0.75566914  0.00281631  0.64492586     0.13500
H224        H  0.81970057  0.00017102  0.70878481     0.13300
H225        H  0.70793823  0.00019129  0.82082013     0.13200
H226        H  0.64389567  0.00283367  0.75693487     0.12200
C227        C  0.30427540  0.00049216  0.69688127     0.18500
C228        C  0.31772901  0.99905436  0.74649328    -0.10600
C229        C  0.28158502  0.99885158  0.78295639    -0.11400
C230        C  0.23183530  0.00010315  0.76995438     0.20100
C231        C  0.21838650  0.00156578  0.72033363    -0.13500
C232        C  0.25453150  0.00176610  0.68387058    -0.11800
C233        C  0.19462931  0.00008998  0.80746135     0.01100
C234        C  0.16333324  0.00026105  0.83874610    -0.31800
C235        C  0.34146640  0.00053228  0.65938695     0.02400
C236        C  0.37263300  0.00049308  0.62795978    -0.33400
H237        H  0.35609033  0.99806817  0.75694589     0.13500
H238        H  0.29239870  0.99774542  0.82120672     0.13300
H239        H  0.18003074  0.00257164  0.70986927     0.13200
H240        H  0.24372997  0.00288864  0.64561414     0.12200
C241        C  0.30370395  0.99634721  0.30566964     0.18500
C242        C  0.31647461  0.99580815  0.25585926    -0.10600
C243        C  0.27983316  0.99641252  0.21987706    -0.11400
C244        C  0.23025046  0.99758314  0.23352803     0.20100
C245        C  0.21748529  0.99824128  0.28335018    -0.13500
C246        C  0.25413134  0.99763158  0.31933577    -0.11800
C247        C  0.19258044  0.99809271  0.19642799     0.01100
C248        C  0.16131028  0.99852033  0.16508125    -0.31800
C249        C  0.34137828  0.99547466  0.34272042     0.02400
C250        C  0.37272242  0.99481431  0.37399422    -0.33400
H251        H  0.35468527  0.99485580  0.24487523     0.13500
H252        H  0.29013571  0.99592598  0.18147523     0.13300
H253        H  0.17927995  0.99917845  0.29434491     0.13200
H254        H  0.24384609  0.99809373  0.35774569     0.12200
C255        C  0.76803517  0.99651964  0.23238537     0.18500
C256        C  0.78141183  0.99378425  0.28196863    -0.10600
C257        C  0.74519833  0.99250411  0.31833324    -0.11400
C258        C  0.69547976  0.99392635  0.30524566     0.20100
C259        C  0.68210468  0.99627332  0.25565002    -0.13500
C260        C  0.71831334  0.99755564  0.21928982    -0.11800
C261        C  0.65824968  0.99369335  0.34267802     0.01100
C262        C  0.62709216  0.99408116  0.37410012    -0.31800
C263        C  0.80526110  0.99845768  0.19498880     0.02400
C264        C  0.83641679  0.99975542  0.16361537    -0.33400
H265        H  0.81975511  0.99287275  0.29248856     0.13500
H266        H  0.75592668  0.99067805  0.35658338     0.13300
H267        H  0.64376175  0.99737874  0.24514298     0.13200
H268        H  0.70757634  0.99957887  0.18105419     0.12200
C269        C  0.99975044  0.23160429  0.76936235     0.18500
C270        C  0.04227035  0.25934103  0.76127860    -0.10600
C271        C  0.04275585  0.29569736  0.72505958    -0.11400
C272        C  0.00072236  0.30446371  0.69675731     0.20100
C273        C  0.95812460  0.27684141  0.70495310    -0.13500
C274        C  0.95763615  0.24047065  0.74119177    -0.11800
C275        C  0.00142473  0.34155950  0.65917839     0.01100
C276        C  0.00210616  0.37257844  0.62761306    -0.31800
C277        C  0.99947218  0.19403938  0.80645632     0.02400
C278        C  0.99965143  0.16266512  0.83763021    -0.33400
H279        H  0.07501621  0.25279498  0.78288225     0.13500
H280        H  0.07587802  0.31685198  0.71904574     0.13300
H281        H  0.92541259  0.28333458  0.68328554     0.13200
H282        H  0.92454785  0.21924782  0.74716804     0.12200
C283        C  0.00146180  0.69544635  0.69638782     0.18500
C284        C  0.02630156  0.73976854  0.68848506    -0.10600
C285        C  0.02634110  0.77607376  0.72478167    -0.11400
C286        C  0.00149821  0.76822834  0.76912382     0.20100
C287        C  0.97675443  0.72386123  0.77706810    -0.13500
C288        C  0.97673178  0.68755000  0.74077986    -0.11800
C289        C  0.00110493  0.80575151  0.80630539     0.01100
C290        C  0.00054669  0.83712612  0.83749771    -0.31800
C291        C  0.00143286  0.65811548  0.65901710     0.02400
C292        C  0.00167361  0.62693046  0.62760230    -0.33400
H293        H  0.04556101  0.74624811  0.65430431     0.13500
H294        H  0.04560412  0.81023188  0.71824769     0.13300
H295        H  0.95743600  0.71740309  0.81121865     0.13200
H296        H  0.95744114  0.65340358  0.74729525     0.12200
C297        C  0.00193534  0.76838476  0.23237401     0.18500
C298        C  0.02578364  0.72356685  0.22419205    -0.10600
C299        C  0.02575618  0.68737281  0.26059210    -0.11400
C300        C  0.00189212  0.69584058  0.30533349     0.20100
C301        C  0.97832652  0.74078274  0.31367890    -0.13500
C302        C  0.97833555  0.77698145  0.27726082    -0.11800
C303        C  0.00129424  0.65830600  0.34245714     0.01100
C304        C  0.00066958  0.62684611  0.37356941    -0.31800
C305        C  0.00156016  0.80542048  0.19469254     0.02400
C306        C  0.00124156  0.83649970  0.16318719    -0.33400
H307        H  0.04421536  0.71656007  0.18966431     0.13500
H308        H  0.04413548  0.65277075  0.25380011     0.13300
H309        H  0.95982759  0.74773212  0.34818720     0.13200
H310        H  0.95985129  0.81153367  0.28401501     0.12200
C311        C  0.99496228  0.23063724  0.23265818     0.18500
C312        C  0.98205375  0.27897287  0.22075933    -0.10600
C313        C  0.98228598  0.31532185  0.25699467    -0.11400
C314        C  0.99541812  0.30348477  0.30528115     0.20100
C315        C  0.00809907  0.25510833  0.31725064    -0.13500
C316        C  0.00787961  0.21875602  0.28100859    -0.11800
C317        C  0.99612969  0.34097988  0.34243266     0.01100
C318        C  0.99682299  0.37234316  0.37363332    -0.31800
C319        C  0.99539975  0.19339880  0.19520084     0.02400
C320        C  0.99613053  0.16229194  0.16374919    -0.33400
H321        H  0.97200747  0.28856604  0.18349771     0.13500
H322        H  0.97240361  0.35261501  0.24736090     0.13300
H323        H  0.01828330  0.24556462  0.35449159     0.13200
H324        H  0.01792599  0.18150254  0.29061882     0.12200
loop_ 
_geom_bond_atom_site_label_1 
_geom_bond_atom_site_label_2 
_geom_bond_distance 
_geom_bond_site_symmetry_2 
_ccdc_geom_bond_type 
N1            C6   1.355       .  A
N1            C5   1.355   1_655  A
N1           H33   1.034       .  S
N2            C9   1.351       .  A
N2           C10   1.351       .  A
N3            C8   1.355       .  A
N3            C7   1.355       .  A
N3           H34   1.035       .  S
N4           C11   1.351   1_455  A
N4           C12   1.351       .  A
C5           C13   1.388       .  A
C5           C21   1.418   1_455  A
C6           C22   1.418       .  A
C6           C14   1.388   1_655  A
C7           C15   1.388   1_455  A
C7           C24   1.418       .  A
C8           C23   1.418       .  A
C8           C16   1.388   1_455  A
C9           C21   1.415   1_455  A
C9           C17   1.388       .  A
C10          C24   1.414       .  A
C10          C18   1.387       .  A
C11          C19   1.387   1_655  A
C11          C22   1.414       .  A
C12          C20   1.387       .  A
C12          C23   1.414       .  A
C13          C14   1.373       .  A
C13          H25   1.082       .  S
C14          H26   1.082       .  S
C15          C16   1.373       .  A
C15          H27   1.082       .  S
C16          H28   1.082       .  S
C17          C18   1.371       .  A
C17          H29   1.082       .  S
C18          H30   1.082       .  S
C19          C20   1.371       .  A
C19          H31   1.082   1_455  S
C20          H32   1.082       .  S
C21         C304   1.451   1_655  S
C22         C318   1.451       .  S
C23         C276   1.451       .  S
C24         C292   1.452       .  S
O35          C46   1.290       .  A
O35         Eu71   2.459       .  S
O36          C47   1.289       .  A
O36         Eu70   2.456   1_455  S
O37          C48   1.289   1_565  A
O37         Eu43   2.455       .  S
O38          C49   1.289       .  A
O38         Eu43   2.455   1_455  S
O39          C49   1.290       .  A
O39         Eu73   2.463   1_565  S
O40          C48   1.290       .  A
O40         Eu72   2.460   1_545  S
O41          C47   1.290       .  A
O41         Eu43   2.460   1_455  S
O42          C46   1.289       .  A
O42         Eu43   2.455   1_545  S
Eu43         O53   2.357   1_665  S
Eu43         O45   2.352   1_565  S
Eu43         O44   2.350   1_655  S
Eu43         O51   2.354       .  S
O44         Eu73   2.351   1_565  S
O44         Eu70   2.351   1_455  S
O45         Eu71   2.352       .  S
O45         Eu72   2.350   1_545  S
C46         C320   1.435       .  S
C47         C306   1.435       .  S
C48         C264   1.434   1_545  S
C49         C248   1.436       .  S
H50          O51   0.966       .  S
O51         Eu72   2.354       .  S
O51         Eu70   2.356       .  S
H52          O53   0.966       .  S
O53         Eu71   2.356   1_455  S
O53         Eu73   2.354       .  S
O54          C77   1.289   1_655  A
O54         Eu70   2.459   1_556  S
O55          C78   1.289       .  A
O55         Eu71   2.458   1_556  S
O56          C79   1.290       .  A
O56         Eu72   2.459       .  S
O57          C80   1.289       .  A
O57         Eu73   2.456   1_565  S
O58          C81   1.289       .  A
O58         Eu73   2.457   1_556  S
O59          C82   1.290       .  A
O59         Eu72   2.460   1_545  S
O60          C83   1.290       .  A
O60         Eu74   2.459       .  S
O61          C84   1.290       .  A
O61         Eu74   2.460   1_445  S
O62          C83   1.289       .  A
O62         Eu72   2.456   1_556  S
O63          C84   1.289       .  A
O63         Eu73   2.458   1_556  S
O64          C79   1.290   1_556  A
O64         Eu70   2.459   1_556  S
O65          C82   1.289       .  A
O65         Eu71   2.458       .  S
O66          C81   1.290       .  A
O66         Eu71   2.460   1_456  S
O67          C80   1.290       .  A
O67         Eu70   2.460   1_455  S
O68          C77   1.289   1_655  A
O68         Eu74   2.458       .  S
O69          C78   1.289   1_455  A
O69         Eu74   2.458   1_445  S
Eu70         O88   2.353   1_654  S
Eu70         O76   2.352   1_554  S
Eu71         O75   2.351   1_654  S
Eu71         O86   2.354   1_554  S
Eu72         O86   2.356   1_564  S
Eu72         O76   2.354   1_554  S
Eu73         O75   2.353   1_554  S
Eu73         O88   2.356   1_544  S
Eu74         O75   2.352   1_665  S
Eu74         O86   2.355   1_565  S
Eu74         O88   2.354   1_655  S
Eu74         O76   2.352       .  S
C77         C290   1.435       .  S
C78         C278   1.434       .  S
C79         C164   1.435       .  S
C80         C192   1.434       .  S
C81         C208   1.435       .  S
C82         C180   1.435       .  S
C83         C220   1.434       .  S
C84         C234   1.435       .  S
H85          O86   0.966       .  S
H87          O88   0.966       .  S
N89          C94   1.355       .  A
N89          C93   1.356       .  A
N89         H121   1.036       .  S
N90          C97   1.351       .  A
N90          C98   1.351       .  A
N91          C96   1.355       .  A
N91          C95   1.355       .  A
N91         H122   1.036       .  S
N92          C99   1.351       .  A
N92         C100   1.351   1_565  A
C93         C101   1.388   1_565  A
C93         C109   1.417       .  A
C94         C110   1.417       .  A
C94         C102   1.388   1_565  A
C95         C103   1.388   1_545  A
C95         C112   1.417       .  A
C96         C111   1.417       .  A
C96         C104   1.388   1_545  A
C97         C109   1.414       .  A
C97         C105   1.387       .  A
C98         C112   1.413   1_565  A
C98         C106   1.387       .  A
C99         C107   1.387       .  A
C99         C110   1.413       .  A
C100        C108   1.388       .  A
C100        C111   1.413       .  A
C101        C102   1.372       .  A
C101        H113   1.082       .  S
C102        H114   1.082       .  S
C103        C104   1.372       .  A
C103        H115   1.082       .  S
C104        H116   1.082       .  S
C105        C106   1.371       .  A
C105        H117   1.082       .  S
C106        H118   1.082       .  S
C107        C108   1.371   1_565  A
C107        H119   1.082       .  S
C108        H120   1.082       .  S
C109        C250   1.452       .  S
C110        C262   1.451       .  S
C111        C222   1.450       .  S
C112        C236   1.451       .  S
N123        C128   1.355       .  A
N123        C127   1.355       .  A
N123        H155   1.035       .  S
N124        C131   1.351   1_554  A
N124        C132   1.351       .  A
N125        C130   1.355       .  A
N125        C129   1.355       .  A
N125        H156   1.035       .  S
N126        C133   1.351       .  A
N126        C134   1.351       .  A
C127        C135   1.388   1_556  A
C127        C143   1.417       .  A
C128        C144   1.418       .  A
C128        C136   1.388   1_556  A
C129        C137   1.388   1_554  A
C129        C146   1.417       .  A
C130        C145   1.417       .  A
C130        C138   1.388   1_554  A
C131        C143   1.414       .  A
C131        C139   1.387   1_556  A
C132        C146   1.414       .  A
C132        C140   1.387       .  A
C133        C141   1.388       .  A
C133        C144   1.414       .  A
C134        C142   1.387       .  A
C134        C145   1.414   1_556  A
C135        C136   1.373       .  A
C135        H147   1.082       .  S
C136        H148   1.082       .  S
C137        C138   1.372       .  A
C137        H149   1.082       .  S
C138        H150   1.082       .  S
C139        C140   1.371       .  A
C139        H151   1.082       .  S
C140        H152   1.082       .  S
C141        C142   1.371       .  A
C141        H153   1.082       .  S
C142        H154   1.082       .  S
C143        C206   1.450       .  S
C144        C178   1.451       .  S
C145        C166   1.451   1_554  S
C146        C194   1.451       .  S
C157        C158   1.401       .  A
C157        C162   1.401   1_556  A
C157        C165   1.439       .  S
C158        C159   1.399       .  A
C158        H167   1.084       .  S
C159        C160   1.401       .  A
C159        H168   1.083       .  S
C160        C161   1.401   1_556  A
C160        C163   1.440   1_556  S
C161        C162   1.399       .  A
C161        H169   1.083       .  S
C162        H170   1.084       .  S
C163        C164   1.206       .  T
C165        C166   1.206       .  T
C171        C172   1.401       .  A
C171        C176   1.401       .  A
C171        C179   1.440       .  S
C172        C173   1.399   1_554  A
C172        H181   1.083   1_554  S
C173        C174   1.401       .  A
C173        H182   1.084       .  S
C174        C175   1.401   1_556  A
C174        C177   1.438       .  S
C175        C176   1.399       .  A
C175        H183   1.084       .  S
C176        H184   1.083       .  S
C177        C178   1.206       .  T
C179        C180   1.206       .  T
C185        C186   1.401       .  A
C185        C190   1.401       .  A
C185        C193   1.438       .  S
C186        C187   1.399       .  A
C186        H195   1.084       .  S
C187        C188   1.401       .  A
C187        H196   1.083       .  S
C188        C189   1.401       .  A
C188        C191   1.439       .  S
C189        C190   1.399       .  A
C189        H197   1.083   1_554  S
C190        H198   1.084   1_554  S
C191        C192   1.206       .  T
C193        C194   1.206       .  T
C199        C200   1.401   1_556  A
C199        C204   1.401       .  A
C199        C207   1.439       .  S
C200        C201   1.399       .  A
C200        H209   1.083       .  S
C201        C202   1.401   1_554  A
C201        H210   1.084       .  S
C202        C203   1.401       .  A
C202        C205   1.438       .  S
C203        C204   1.399       .  A
C203        H211   1.084       .  S
C204        H212   1.083       .  S
C205        C206   1.206       .  T
C207        C208   1.206       .  T
C213        C214   1.401       .  A
C213        C218   1.401       .  A
C213        C221   1.438       .  S
C214        C215   1.398       .  A
C214        H223   1.084       .  S
C215        C216   1.401   1_545  A
C215        H224   1.083       .  S
C216        C217   1.401   1_565  A
C216        C219   1.439       .  S
C217        C218   1.399       .  A
C217        H225   1.083       .  S
C218        H226   1.084       .  S
C219        C220   1.205       .  T
C221        C222   1.205       .  T
C227        C228   1.401   1_545  A
C227        C232   1.401       .  A
C227        C235   1.439       .  S
C228        C229   1.399       .  A
C228        H237   1.084       .  S
C229        C230   1.401   1_565  A
C229        H238   1.083       .  S
C230        C231   1.401       .  A
C230        C233   1.439       .  S
C231        C232   1.399       .  A
C231        H239   1.083       .  S
C232        H240   1.084       .  S
C233        C234   1.206       .  T
C235        C236   1.206       .  T
C241        C242   1.401       .  A
C241        C246   1.401       .  A
C241        C249   1.440       .  S
C242        C243   1.399       .  A
C242        H251   1.084       .  S
C243        C244   1.401       .  A
C243        H252   1.083       .  S
C244        C245   1.402       .  A
C244        C247   1.441       .  S
C245        C246   1.399       .  A
C245        H253   1.083       .  S
C246        H254   1.084       .  S
C247        C248   1.206       .  T
C249        C250   1.206       .  T
C255        C256   1.401       .  A
C255        C260   1.401       .  A
C255        C263   1.439       .  S
C256        C257   1.399       .  A
C256        H265   1.083       .  S
C257        C258   1.401       .  A
C257        H266   1.084       .  S
C258        C259   1.401       .  A
C258        C261   1.439       .  S
C259        C260   1.399       .  A
C259        H267   1.084       .  S
C260        H268   1.083       .  S
C261        C262   1.206       .  T
C263        C264   1.205       .  T
C269        C270   1.401   1_655  A
C269        C274   1.401       .  A
C269        C277   1.438       .  S
C270        C271   1.398       .  A
C270        H279   1.083       .  S
C271        C272   1.401       .  A
C271        H280   1.083       .  S
C272        C273   1.401   1_455  A
C272        C275   1.439       .  S
C273        C274   1.399       .  A
C273        H281   1.083       .  S
C274        H282   1.083       .  S
C275        C276   1.206       .  T
C277        C278   1.205       .  T
C283        C284   1.401       .  A
C283        C288   1.401   1_455  A
C283        C291   1.440       .  S
C284        C285   1.399       .  A
C284        H293   1.083       .  S
C285        C286   1.401       .  A
C285        H294   1.083       .  S
C286        C287   1.401   1_455  A
C286        C289   1.440       .  S
C287        C288   1.399       .  A
C287        H295   1.083       .  S
C288        H296   1.083       .  S
C289        C290   1.206       .  T
C291        C292   1.206       .  T
C297        C298   1.401       .  A
C297        C302   1.402   1_455  A
C297        C305   1.440       .  S
C298        C299   1.399       .  A
C298        H307   1.083       .  S
C299        C300   1.401       .  A
C299        H308   1.084       .  S
C300        C301   1.401   1_455  A
C300        C303   1.439       .  S
C301        C302   1.399       .  A
C301        H309   1.084       .  S
C302        H310   1.083       .  S
C303        C304   1.206       .  T
C305        C306   1.206       .  T
C311        C312   1.401       .  A
C311        C316   1.401   1_655  A
C311        C319   1.439       .  S
C312        C313   1.399       .  A
C312        H321   1.083       .  S
C313        C314   1.401       .  A
C313        H322   1.084       .  S
C314        C315   1.401   1_655  A
C314        C317   1.439       .  S
C315        C316   1.399       .  A
C315        H323   1.084       .  S
C316        H324   1.083       .  S
C317        C318   1.206       .  T
C319        C320   1.206       .  T
