geometry optimzed in LAMMPS
_audit_creation_date              2020-11-30 
_audit_creation_method            'lammps2cif' 
_symmetry_space_group_name_H-M    'P1' 
_symmetry_Int_Tables_number       1 
_symmetry_cell_setting            triclinic 
loop_ 
_symmetry_equiv_pos_as_xyz 
  x,y,z 
_cell_length_a                    26.2322293 
_cell_length_b                    26.470016066692367 
_cell_length_c                    26.308576827848626 
_cell_angle_alpha                 89.91392619917066 
_cell_angle_beta                  90.01707456527724 
_cell_angle_gamma                 90.18250602229469 
loop_ 
_atom_site_label 
_atom_site_type_symbol 
_atom_site_fract_x 
_atom_site_fract_y 
_atom_site_fract_z 
_atom_site_charge 
N1          N  0.00668784  0.49051137  0.57601584    -0.36000
N2          N  0.99906588  0.57696685  0.50898833    -0.56600
N3          N  0.00536306  0.51017523  0.42065589    -0.36000
N4          N  0.01879547  0.42445482  0.48793441    -0.56600
C5          C  0.01251869  0.52902559  0.60939775     0.27600
C6          C  0.02590869  0.44859897  0.59832067     0.27600
C7          C  0.01295368  0.55592840  0.39873367     0.27600
C8          C  0.02172918  0.47471343  0.38738888     0.27600
C9          C  0.98460907  0.59876531  0.55317837     0.36200
C10         C  0.98597951  0.60942931  0.47151954     0.36200
C11         C  0.01904751  0.38915209  0.52519803     0.36200
C12         C  0.01552401  0.39912694  0.44334336     0.36200
C13         C  0.03559571  0.51141172  0.65334389    -0.21300
C14         C  0.04438893  0.46076280  0.64622203    -0.21300
C15         C  0.03470206  0.54931087  0.35111384    -0.21300
C16         C  0.03936455  0.49815191  0.34362103    -0.21300
C17         C  0.96162073  0.64488112  0.54364600    -0.22300
C18         C  0.96292145  0.65184957  0.49194459    -0.22300
C19         C  0.01638478  0.34124216  0.50418308    -0.22300
C20         C  0.01463007  0.34749357  0.45251509    -0.22300
C21         C  0.99576917  0.57918747  0.60197594    -0.17700
C22         C  0.02494182  0.39918711  0.57770186    -0.17700
C23         C  0.01877484  0.42177839  0.39455379    -0.17700
C24         C  0.99810004  0.60308593  0.41959576    -0.17700
H25         H  0.04541919  0.53287696  0.68695373     0.15200
H26         H  0.06237152  0.43575333  0.67336664     0.15200
H27         H  0.04598992  0.57815443  0.32417991     0.15200
H28         H  0.05450298  0.48044046  0.30983293     0.15200
H29         H  0.94610851  0.67113312  0.57102154     0.13500
H30         H  0.94867079  0.68451035  0.47169553     0.13500
H31         H  0.01680931  0.30529872  0.52381959     0.13500
H32         H  0.01445208  0.31706404  0.42516293     0.13500
H33         H  0.98576509  0.49161312  0.54244621     0.26800
H34         H  0.98513922  0.50334954  0.45397444     0.26800
O35         O  0.99214858  0.14019737  0.09027027    -0.85900
O36         O  0.00614603  0.85306109  0.07205741    -0.86100
O37         O  0.91055623  0.99294931  0.13863185    -0.87700
O38         O  0.07575173  0.99607572  0.14839489    -0.86500
O39         O  0.14124480  0.00021669  0.09063840    -0.86100
O40         O  0.85299264  0.99307894  0.07283731    -0.87400
O41         O  0.99666534  0.90918801  0.13794690    -0.85900
O42         O  0.99009601  0.07484582  0.14780262    -0.85500
Zr43       Zr  0.99564184  0.99468381  0.10161536     2.84300
O44         O  0.05232677  0.94868866  0.05082988    -1.07500
O45         O  0.94501253  0.04611585  0.04984796    -1.08200
C46         C  0.99007861  0.12231396  0.13598255     1.07200
C47         C  0.00134770  0.86403641  0.11957196     1.07200
C48         C  0.86476339  0.99300970  0.12053033     1.10100
C49         C  0.12343183  0.99778195  0.13639981     1.07900
H50         H  0.92855900  0.92119612  0.06306581     0.33500
O51         O  0.95002089  0.94426686  0.04416013    -1.28400
H52         H  0.06710768  0.07196326  0.08039088     0.33200
O53         O  0.04773416  0.05139831  0.05691319    -1.30100
O54         O  0.00914980  0.86308703  0.90681882    -0.85900
O55         O  0.99873378  0.15001369  0.92600516    -0.87400
O56         O  0.86072374  0.91105383  0.98787187    -0.86000
O57         O  0.15018065  0.92584980  0.00065076    -0.86000
O58         O  0.14244534  0.08829812  0.01125422    -0.85700
O59         O  0.85331973  0.07502889  0.99540617    -0.85500
O60         O  0.92828051  0.00841215  0.84947813    -0.85900
O61         O  0.09430364  0.01422392  0.86105959    -0.85400
O62         O  0.86308638  0.99967063  0.90713890    -0.86400
O63         O  0.15141519  0.01255810  0.92721262    -0.85600
O64         O  0.92636039  0.85385012  0.98918559    -0.86000
O65         O  0.91073803  0.14028369  0.00368073    -0.85700
O66         O  0.07924097  0.14814320  0.00875167    -0.85400
O67         O  0.09167998  0.86147982  0.99424870    -0.85800
O68         O  0.01242449  0.92878610  0.84970037    -0.86100
O69         O  0.00676707  0.09364966  0.86018340    -0.87400
Zr70       Zr  0.00682939  0.89948162  0.99232562     2.83100
Zr71       Zr  0.99688059  0.10333819  0.00550628     2.83800
Zr72       Zr  0.89941770  0.99557729  0.99247307     2.84100
Zr73       Zr  0.10376846  0.00520553  0.00584969     2.83400
Zr74       Zr  0.00825181  0.00835413  0.89654203     2.84200
O75         O  0.05385090  0.05792579  0.95453456    -1.08000
O76         O  0.95609220  0.95102085  0.94071723    -1.07500
C77         C  0.01149781  0.88128492  0.86117270     1.07200
C78         C  0.00264274  0.13884848  0.87847433     1.09800
C79         C  0.87866835  0.86550590  0.98808327     1.07400
C80         C  0.13778267  0.87879217  0.99684464     1.07700
C81         C  0.12658304  0.13432703  0.01072804     1.07300
C82         C  0.86486093  0.12224382  0.99980041     1.06900
C83         C  0.88069442  0.00487205  0.86150122     1.07300
C84         C  0.14000989  0.01491132  0.87962395     1.06800
H85         H  0.93004633  0.07436467  0.92699287     0.33500
O86         O  0.95115696  0.05297821  0.94800834    -1.29100
H87         H  0.08200947  0.93707497  0.92614187     0.33500
O88         O  0.05871107  0.95579874  0.94737364    -1.30500
N89         N  0.49222194  0.98860664  0.57860345    -0.36000
N90         N  0.42378852  0.98517381  0.49179657    -0.56600
N91         N  0.51063258  0.98033002  0.42360234    -0.36000
N92         N  0.57895164  0.98081597  0.51045885    -0.56600
C93         C  0.44711623  0.98057115  0.60220333     0.27600
C94         C  0.52943121  0.97574552  0.61179725     0.27600
C95         C  0.47245733  0.96641536  0.39179760     0.27600
C96         C  0.55517739  0.96753110  0.40106654     0.27600
C97         C  0.38938192  0.99513967  0.52862941     0.36200
C98         C  0.39866508  0.98865821  0.44704811     0.36200
C99         C  0.60409666  0.98818577  0.55471773     0.36200
C100        C  0.61385934  0.98584388  0.47300321     0.36200
C101        C  0.45573014  0.96285754  0.65108897    -0.21300
C102        C  0.50765610  0.95998402  0.65721408    -0.21300
C103        C  0.49315997  0.94499082  0.34836710    -0.21300
C104        C  0.54526202  0.94561239  0.35427813    -0.21300
C105        C  0.34223289  0.00529073  0.50730200    -0.22300
C106        C  0.34787336  0.00051905  0.45579579    -0.22300
C107        C  0.65531358  0.99744502  0.54516854    -0.22300
C108        C  0.66132366  0.99656639  0.49348436    -0.22300
C109        C  0.39842712  0.99008909  0.58125016    -0.17700
C110        C  0.58236486  0.98140674  0.60347250    -0.17700
C111        C  0.60457606  0.97648307  0.42101372    -0.17700
C112        C  0.41983223  0.97588016  0.39922632    -0.17700
H113        H  0.42758686  0.95293279  0.67949801     0.15200
H114        H  0.52704726  0.94799636  0.69145910     0.15200
H115        H  0.47298827  0.93073095  0.31547797     0.15200
H116        H  0.57268603  0.93143778  0.32713737     0.15200
H117        H  0.30690072  0.01343151  0.52685205     0.13500
H118        H  0.31723438  0.00383313  0.42855881     0.13500
H119        H  0.68581088  0.00299349  0.57222957     0.13500
H120        H  0.69698127  0.00178962  0.47344057     0.13500
H121        H  0.49726492  0.00693656  0.54400013     0.26800
H122        H  0.50692534  0.00228367  0.45609912     0.26800
N123        N  0.50351517  0.42256348  0.00290441    -0.36000
N124        N  0.42196628  0.49732796  0.01396474    -0.56600
N125        N  0.49523661  0.57836294  0.99894561    -0.36000
N126        N  0.57585901  0.50425078  0.98242257    -0.56600
C127        C  0.46159752  0.39279461  0.99805379     0.27600
C128        C  0.54392205  0.39598933  0.98530975     0.27600
C129        C  0.45172839  0.60572480  0.00150292     0.27600
C130        C  0.53268989  0.60937784  0.98198569     0.27600
C131        C  0.39667782  0.45482623  0.02744806     0.36200
C132        C  0.39350204  0.53662629  0.03028184     0.36200
C133        C  0.60887353  0.46506651  0.98288274     0.36200
C134        C  0.60436937  0.54690847  0.97937166     0.36200
C135        C  0.47581636  0.34662553  0.97761321    -0.21300
C136        C  0.52768193  0.34856667  0.96985930    -0.21300
C137        C  0.46212464  0.65519587  0.98725999    -0.21300
C138        C  0.51290323  0.65740626  0.97469652    -0.21300
C139        C  0.35217953  0.46720968  0.05295721    -0.22300
C140        C  0.34991081  0.51894810  0.05428706    -0.22300
C141        C  0.65851186  0.48293899  0.97961787    -0.22300
C142        C  0.65563444  0.53451621  0.97672904    -0.22300
C143        C  0.41127398  0.40528595  0.01341983    -0.17700
C144        C  0.59511308  0.41328012  0.98269115    -0.17700
C145        C  0.58491740  0.59680570  0.97637760    -0.17700
C146        C  0.40389499  0.58802188  0.01966189    -0.17700
H147        H  0.45139913  0.31477604  0.96887128     0.15200
H148        H  0.55064173  0.31874057  0.95368500     0.15200
H149        H  0.43642850  0.68704456  0.98701265     0.15200
H150        H  0.53310548  0.69110724  0.96278918     0.15200
H151        H  0.32390146  0.44172670  0.06859248     0.13500
H152        H  0.31929099  0.54091163  0.07058476     0.13500
H153        H  0.69334601  0.46117628  0.97847754     0.13500
H154        H  0.68790432  0.55970729  0.97263737     0.13500
H155        H  0.50534235  0.45710130  0.02152424     0.26800
H156        H  0.50021553  0.54217099  0.01296888     0.26800
C157        C  0.69163208  0.69689629  0.99283957     0.19300
C158        C  0.73642030  0.69865766  0.02193860    -0.18800
C159        C  0.76941595  0.74009264  0.01882458    -0.11100
C160        C  0.75825028  0.78101346  0.98650605     0.21500
C161        C  0.71312764  0.77970541  0.95791058    -0.20400
C162        C  0.68021868  0.73799620  0.96072894    -0.11300
C163        C  0.79229138  0.82598429  0.98337750    -0.15400
C164        C  0.84309790  0.82211085  0.98872649    -0.29300
C165        C  0.65672228  0.65298555  0.99952977    -0.03500
C166        C  0.62091716  0.63915481  0.96564860    -0.40100
H167        H  0.74578412  0.66793283  0.04751562     0.12700
H168        H  0.80301408  0.74047208  0.04270567     0.12300
H169        H  0.70336486  0.81103656  0.93326487     0.11800
H170        H  0.64539182  0.73891960  0.93878184     0.12000
H171        H  0.77543991  0.86249798  0.97495762     0.14700
H172        H  0.85997698  0.78500635  0.99368314     0.13500
H173        H  0.66096785  0.63043741  0.03385373     0.11200
H174        H  0.61544802  0.66038842  0.93081294     0.13200
C175        C  0.69210554  0.30500889  0.00465651     0.19300
C176        C  0.69076184  0.25765760  0.02870393    -0.18800
C177        C  0.73329026  0.22582810  0.02784707    -0.11100
C178        C  0.77851763  0.24082586  0.00312771     0.21500
C179        C  0.78047703  0.28882167  0.98051183    -0.20400
C180        C  0.73779396  0.32053331  0.98102926    -0.11300
C181        C  0.82440547  0.20771717  0.00149969    -0.15400
C182        C  0.82073277  0.15700145  0.00093084    -0.29300
C183        C  0.64632726  0.33821830  0.00758858    -0.03500
C184        C  0.63701468  0.37606319  0.97462780    -0.40100
H185        H  0.65659388  0.24518239  0.04821324     0.12700
H186        H  0.73087208  0.18990537  0.04739419     0.12300
H187        H  0.81508176  0.30170728  0.96207102     0.11800
H188        H  0.74129300  0.35751880  0.96386457     0.12000
H189        H  0.86171725  0.22543771  0.99864550     0.14700
H190        H  0.78322165  0.13952895  0.00036914     0.13500
H191        H  0.61949851  0.33170180  0.03841619     0.11200
H192        H  0.66284601  0.38290455  0.94316881     0.13200
C193        C  0.21802103  0.75716890  0.00054926     0.19300
C194        C  0.22117641  0.71680933  0.03501484    -0.18800
C195        C  0.26133685  0.68220422  0.03210563    -0.11100
C196        C  0.29863596  0.68692142  0.99393045     0.21500
C197        C  0.29455818  0.72648948  0.95861052    -0.20400
C198        C  0.25495282  0.76154203  0.96206792    -0.11300
C199        C  0.34107573  0.65032274  0.98841929    -0.15400
C200        C  0.36174139  0.62482351  0.02759307    -0.29300
C201        C  0.17491829  0.79313927  0.00422309    -0.03500
C202        C  0.18041691  0.84263469  0.99398294    -0.40100
H203        H  0.19267887  0.71229089  0.06448017     0.12700
H204        H  0.26236953  0.65127217  0.05900753     0.12300
H205        H  0.32233302  0.73045619  0.92838406     0.11800
H206        H  0.25269377  0.79142663  0.93402034     0.12000
H207        H  0.35743720  0.64551878  0.95077111     0.14700
H208        H  0.34660192  0.62906806  0.06571746     0.13500
H209        H  0.13847783  0.77898856  0.01790546     0.11200
H210        H  0.21786587  0.85756684  0.98450674     0.13200
C211        C  0.28417147  0.33011114  0.99805959     0.19300
C212        C  0.24015227  0.33674043  0.96831454    -0.18800
C213        C  0.19998409  0.30182818  0.97037661    -0.11100
C214        C  0.20297636  0.25925675  0.00201053     0.21500
C215        C  0.24656977  0.25303109  0.03260878    -0.20400
C216        C  0.28661974  0.28801509  0.03073336    -0.11300
C217        C  0.15998744  0.22234135  0.00278946    -0.15400
C218        C  0.16726728  0.17302843  0.01261192    -0.29300
C219        C  0.32519725  0.36918089  0.99553250    -0.03500
C220        C  0.37238853  0.36381449  0.01533860    -0.40100
H221        H  0.23679243  0.36911439  0.94330942     0.12700
H222        H  0.16669922  0.30780399  0.94676236     0.12300
H223        H  0.24948133  0.22174309  0.05894689     0.11800
H224        H  0.31869365  0.28221485  0.05580975     0.12000
H225        H  0.12226438  0.23538826  0.99199326     0.14700
H226        H  0.20563497  0.15936407  0.01954501     0.13500
H227        H  0.31616568  0.40433490  0.97614521     0.11200
H228        H  0.38417383  0.32790642  0.03119871     0.13200
C229        C  0.68320736  0.01135844  0.70556668     0.19300
C230        C  0.72698730  0.04188274  0.70430389    -0.18800
C231        C  0.76338299  0.03878598  0.74294714    -0.11100
C232        C  0.75623319  0.00537600  0.78395073     0.21500
C233        C  0.71180377  0.97586190  0.78593002    -0.20400
C234        C  0.67572466  0.97845985  0.74694173    -0.11300
C235        C  0.79345221  0.00180690  0.82609467    -0.15400
C236        C  0.84387542  0.00798765  0.81920954    -0.29300
C237        C  0.64586814  0.01554166  0.66358256    -0.03500
C238        C  0.61673096  0.97671455  0.64806801    -0.40100
H239        H  0.73322320  0.06791360  0.67307881     0.12700
H240        H  0.79651194  0.06319958  0.74112165     0.12300
H241        H  0.70520325  0.95044716  0.81758574     0.11800
H242        H  0.64168681  0.95544988  0.74985107     0.12000
H243        H  0.77898276  0.99172891  0.86347413     0.14700
H244        H  0.85882306  0.01507853  0.78135568     0.13500
H245        H  0.64462696  0.05078223  0.64232586     0.11200
H246        H  0.61767601  0.94073007  0.66784870     0.13200
C247        C  0.30456874  0.02207152  0.68933235     0.19300
C248        C  0.31052688  0.04207053  0.73830119    -0.18800
C249        C  0.26987925  0.04185874  0.77260542    -0.11100
C250        C  0.22224881  0.02163359  0.75841068     0.21500
C251        C  0.21578115  0.00343010  0.70884014    -0.20400
C252        C  0.25639350  0.00362489  0.67456625    -0.11300
C253        C  0.17822727  0.01978452  0.79374560    -0.15400
C254        C  0.18363130  0.01830631  0.84449338    -0.29300
C255        C  0.34919196  0.02159966  0.65471178    -0.03500
C256        C  0.35331747  0.98970256  0.61526820    -0.40100
H257        H  0.34693557  0.05743102  0.75024969     0.12700
H258        H  0.27587481  0.05811889  0.80982309     0.12300
H259        H  0.17922978  0.98856962  0.69669938     0.11800
H260        H  0.24949033  0.98983285  0.63652574     0.12000
H261        H  0.14028399  0.01720992  0.77733021     0.14700
H262        H  0.22140313  0.01808047  0.86132695     0.13500
H263        H  0.38076417  0.04702486  0.66295185     0.11200
H264        H  0.32292324  0.96336117  0.60624115     0.13200
C265        C  0.31895831  0.00058292  0.29522503     0.19300
C266        C  0.27546292  0.03122448  0.29515640    -0.18800
C267        C  0.23947594  0.02739141  0.25622252    -0.11100
C268        C  0.24660832  0.99309005  0.21609882     0.21500
C269        C  0.29057196  0.96301488  0.21563454    -0.20400
C270        C  0.32628621  0.96633465  0.25506579    -0.11300
C271        C  0.21004349  0.98996141  0.17317130    -0.15400
C272        C  0.15983194  0.99820157  0.17914665    -0.29300
C273        C  0.35650995  0.00677658  0.33687839    -0.03500
C274        C  0.38504801  0.96872877  0.35503382    -0.40100
H275        H  0.26928584  0.05822964  0.32542731     0.12700
H276        H  0.20682228  0.05226639  0.25696696     0.12300
H277        H  0.29722659  0.93686578  0.18472024     0.11800
H278        H  0.36008815  0.94307419  0.25333205     0.12000
H279        H  0.22466922  0.97939951  0.13604145     0.14700
H280        H  0.14451580  0.00489408  0.21688365     0.13500
H281        H  0.35853041  0.04333786  0.35557305     0.11200
H282        H  0.38336053  0.93166782  0.33751843     0.13200
C283        C  0.78372369  0.99913931  0.24298590     0.19300
C284        C  0.78962572  0.98175033  0.29306835    -0.18800
C285        C  0.74836687  0.98193247  0.32689286    -0.11100
C286        C  0.70031991  0.99993236  0.31119563     0.21500
C287        C  0.69529896  0.01944435  0.26188130    -0.20400
C288        C  0.73637742  0.01914710  0.22816325    -0.11300
C289        C  0.65480620  0.00059385  0.34498974    -0.15400
C290        C  0.64984240  0.97214021  0.38708161    -0.29300
C291        C  0.82763200  0.99689225  0.20733709    -0.03500
C292        C  0.82164373  0.99366098  0.15656503    -0.40100
H293        H  0.82606817  0.96733309  0.30583535     0.12700
H294        H  0.75462724  0.96846331  0.36518633     0.12300
H295        H  0.65919076  0.03467637  0.24916112     0.11800
H296        H  0.73089714  0.03514053  0.19071435     0.12000
H297        H  0.62334782  0.02507666  0.33432460     0.14700
H298        H  0.68031078  0.94724968  0.39907851     0.13500
H299        H  0.86578286  0.99644453  0.22345381     0.11200
H300        H  0.78366293  0.99161434  0.14033286     0.13200
C301        C  0.00713135  0.30510553  0.68975408     0.19300
C302        C  0.97997087  0.30730337  0.73567178    -0.18800
C303        C  0.97988183  0.26646214  0.76937028    -0.11100
C304        C  0.00734807  0.22231420  0.75800510     0.21500
C305        C  0.03402923  0.21976492  0.71192394    -0.20400
C306        C  0.03419015  0.26066735  0.67817926    -0.11300
C307        C  0.00794889  0.17794278  0.79269968    -0.15400
C308        C  0.00169974  0.18224854  0.84321528    -0.29300
C309        C  0.00411572  0.34921036  0.65467468    -0.03500
C310        C  0.03251738  0.35523827  0.61242923    -0.40100
H311        H  0.95826328  0.34068274  0.74538150     0.12700
H312        H  0.95735972  0.26934684  0.80367019     0.12300
H313        H  0.05501211  0.18598775  0.70205134     0.11800
H314        H  0.05487510  0.25651852  0.64297946     0.12000
H315        H  0.01588364  0.14107907  0.77643941     0.14700
H316        H  0.99675900  0.21930802  0.86007802     0.13500
H317        H  0.97656348  0.37840651  0.66389547     0.11200
H318        H  0.05991110  0.32690991  0.60110518     0.13200
C319        C  0.00992633  0.69194273  0.69581253     0.19300
C320        C  0.04466893  0.73228182  0.69934008    -0.18800
C321        C  0.04253704  0.76631606  0.73992816    -0.11100
C322        C  0.00532679  0.76089997  0.77802336     0.21500
C323        C  0.97084036  0.72037177  0.77491193    -0.20400
C324        C  0.97267044  0.68651260  0.73403986    -0.11300
C325        C  0.00253227  0.79618365  0.82193692    -0.15400
C326        C  0.01418381  0.84563655  0.81791646    -0.29300
C327        C  0.01300402  0.65784520  0.65082285    -0.03500
C328        C  0.99055832  0.61206583  0.64782106    -0.40100
H329        H  0.07378807  0.73742858  0.67058461     0.12700
H330        H  0.07054160  0.79637559  0.74179052     0.12300
H331        H  0.94179835  0.71542102  0.80377570     0.11800
H332        H  0.94430839  0.65685952  0.73232202     0.12000
H333        H  0.98827049  0.78153108  0.85784513     0.14700
H334        H  0.02455591  0.86114779  0.78108436     0.13500
H335        H  0.03597427  0.67051091  0.61882927     0.11200
H336        H  0.97125262  0.59616315  0.68061267     0.13200
C337        C  0.98081942  0.69609743  0.30660741     0.19300
C338        C  0.97482754  0.68888109  0.25412597    -0.18800
C339        C  0.97783601  0.72970332  0.22045233    -0.11100
C340        C  0.98700140  0.77896640  0.23862969     0.21500
C341        C  0.99189031  0.78629566  0.29121121    -0.20400
C342        C  0.98894214  0.74543220  0.32489660    -0.11300
C343        C  0.98970954  0.82371970  0.20429955    -0.15400
C344        C  0.00082178  0.82029418  0.15451940    -0.29300
C345        C  0.97744664  0.65137744  0.34077757    -0.03500
C346        C  0.99896101  0.64943590  0.38721130    -0.40100
H347        H  0.96787924  0.65140876  0.23905704     0.12700
H348        H  0.97186850  0.72238333  0.18047842     0.12300
H349        H  0.99806176  0.82386545  0.30633063     0.11800
H350        H  0.99209105  0.75299083  0.36514010     0.12000
H351        H  0.98303260  0.86073411  0.22078222     0.14700
H352        H  0.00944364  0.78383581  0.13790844     0.13500
H353        H  0.95867880  0.61773799  0.32614551     0.11200
H354        H  0.01769153  0.68251433  0.40285161     0.13200
C355        C  0.99477630  0.24538400  0.21557911     0.19300
C356        C  0.02258096  0.29072159  0.21184007    -0.18800
C357        C  0.02076572  0.32676470  0.25078882    -0.11100
C358        C  0.99049016  0.31833911  0.29414778     0.21500
C359        C  0.96194309  0.27351175  0.29734135    -0.20400
C360        C  0.96412329  0.23734574  0.25872100    -0.11300
C361        C  0.98649777  0.35545596  0.33637030    -0.15400
C362        C  0.02341529  0.38866981  0.34885904    -0.29300
C363        C  0.99685705  0.20841696  0.17297575    -0.03500
C364        C  0.98755169  0.15857025  0.17873426    -0.40100
H365        H  0.04588616  0.29823459  0.17867302     0.12700
H366        H  0.04224144  0.36143694  0.24628743     0.12300
H367        H  0.93788597  0.26633411  0.33004854     0.11800
H368        H  0.94082235  0.20375923  0.26238165     0.12000
H369        H  0.95297645  0.35315601  0.36058617     0.14700
H370        H  0.05768714  0.39170137  0.32600158     0.13500
H371        H  0.00822963  0.22258878  0.13586437     0.11200
H372        H  0.97965407  0.14324585  0.21619979     0.13200
loop_ 
_geom_bond_atom_site_label_1 
_geom_bond_atom_site_label_2 
_geom_bond_distance 
_geom_bond_site_symmetry_2 
_ccdc_geom_bond_type 
N1            C6   1.353       .  A
N1            C5   1.355       .  A
N1           H33   1.040   1_455  S
N2            C9   1.354       .  A
N2           C10   1.352       .  A
N3            C8   1.355       .  A
N3            C7   1.355       .  A
N3           H34   1.040   1_455  S
N4           C11   1.353       .  A
N4           C12   1.355       .  A
C5           C13   1.386       .  A
C5           C21   1.413   1_455  A
C6           C22   1.417       .  A
C6           C14   1.388       .  A
C7           C15   1.388       .  A
C7           C24   1.420   1_455  A
C8           C23   1.415       .  A
C8           C16   1.386       .  A
C9           C21   1.415       .  A
C9           C17   1.386       .  A
C10          C24   1.413       .  A
C10          C18   1.386       .  A
C11          C19   1.386       .  A
C11          C22   1.415       .  A
C12          C20   1.388       .  A
C12          C23   1.418       .  A
C13          C14   1.374       .  A
C13          H25   1.082       .  S
C14          H26   1.082       .  S
C15          C16   1.375       .  A
C15          H27   1.082       .  S
C16          H28   1.082       .  S
C17          C18   1.373       .  A
C17          H29   1.082       .  S
C18          H30   1.082       .  S
C19          C20   1.370       .  A
C19          H31   1.082       .  S
C20          H32   1.081       .  S
C21         C328   1.495       .  S
C22         C310   1.492       .  S
C23         C362   1.494       .  S
C24         C346   1.493       .  S
O35         Zr71   2.439       .  S
O35          C46   1.293       .  A
O36         Zr70   2.429   1_554  S
O36          C47   1.290       .  A
O37         Zr43   2.436       .  S
O37          C48   1.292       .  A
O38         Zr43   2.435   1_455  S
O38          C49   1.291       .  A
O39         Zr73   2.441       .  S
O39          C49   1.293   1_545  A
O40         Zr72   2.441   1_554  S
O40          C48   1.292       .  A
O41         Zr43   2.456       .  S
O41          C47   1.296   1_655  A
O42         Zr43   2.452   1_545  S
O42          C46   1.294       .  A
Zr43         O44   2.344   1_655  S
Zr43         O45   2.340   1_565  S
Zr43         O53   2.342   1_665  S
Zr43         O51   2.344       .  S
O44         Zr70   2.342   1_554  S
O44         Zr73   2.333   1_565  S
O45         Zr71   2.343       .  S
O45         Zr72   2.344   1_544  S
C46         C364   1.481       .  S
C47         C344   1.477       .  S
C48         C292   1.476       .  S
C49         C272   1.475       .  S
H50          O51   0.967       .  S
O51         Zr70   2.346   1_654  S
O51         Zr72   2.337   1_554  S
H52          O53   0.967       .  S
O53         Zr71   2.346   1_455  S
O53         Zr73   2.341       .  S
O54         Zr70   2.449       .  S
O54          C77   1.295       .  A
O55         Zr71   2.428   1_556  S
O55          C78   1.290   1_655  A
O56         Zr72   2.457       .  S
O56          C79   1.296       .  A
O57         Zr73   2.435   1_565  S
O57          C80   1.290   1_554  A
O58         Zr73   2.424       .  S
O58          C81   1.289       .  A
O59         Zr72   2.431   1_545  S
O59          C82   1.290       .  A
O60         Zr74   2.436   1_655  S
O60          C83   1.291       .  A
O61         Zr74   2.447       .  S
O61          C84   1.295       .  A
O62         Zr72   2.441       .  S
O62          C83   1.294   1_565  A
O63         Zr73   2.425   1_556  S
O63          C84   1.289       .  A
O64         Zr70   2.430   1_655  S
O64          C79   1.290       .  A
O65         Zr71   2.466       .  S
O65          C82   1.297   1_554  A
O66         Zr71   2.463   1_455  S
O66          C81   1.297       .  A
O67         Zr70   2.446       .  S
O67          C80   1.294       .  A
O68         Zr74   2.445   1_565  S
O68          C77   1.293       .  A
O69         Zr74   2.451       .  S
O69          C78   1.295       .  A
Zr70         O76   2.341   1_455  S
Zr70         O88   2.336       .  S
Zr71         O75   2.344   1_654  S
Zr71         O86   2.345   1_554  S
Zr72         O76   2.339       .  S
Zr72         O86   2.346   1_565  S
Zr73         O75   2.343   1_554  S
Zr73         O88   2.339   1_544  S
Zr74         O75   2.340       .  S
Zr74         O76   2.347   1_445  S
Zr74         O88   2.341   1_545  S
Zr74         O86   2.343   1_455  S
C77         C326   1.481       .  S
C78         C308   1.476       .  S
C79         C164   1.478       .  S
C80         C202   1.476       .  S
C81         C218   1.478       .  S
C82         C182   1.481   1_556  S
C83         C236   1.476       .  S
C84         C254   1.474       .  S
H85          O86   0.966       .  S
H87          O88   0.967       .  S
N89          C94   1.354       .  A
N89          C93   1.352       .  A
N89         H121   1.039   1_565  S
N90          C97   1.351       .  A
N90          C98   1.352       .  A
N91          C96   1.355       .  A
N91          C95   1.355       .  A
N91         H122   1.039   1_565  S
N92          C99   1.352       .  A
N92         C100   1.352       .  A
C93         C101   1.387       .  A
C93         C109   1.414       .  A
C94         C110   1.413       .  A
C94         C102   1.388       .  A
C95         C103   1.388       .  A
C95         C112   1.417       .  A
C96         C111   1.417       .  A
C96         C104   1.386       .  A
C97         C109   1.411       .  A
C97         C105   1.385   1_565  A
C98         C112   1.417       .  A
C98         C106   1.389   1_565  A
C99         C107   1.388       .  A
C99         C110   1.415       .  A
C100        C108   1.385       .  A
C100        C111   1.411       .  A
C101        C102   1.374       .  A
C101        H113   1.082       .  S
C102        H114   1.082       .  S
C103        C104   1.376       .  A
C103        H115   1.082       .  S
C104        H116   1.082       .  S
C105        C106   1.369       .  A
C105        H117   1.083       .  S
C106        H118   1.080       .  S
C107        C108   1.369       .  A
C107        H119   1.081   1_565  S
C108        H120   1.082   1_565  S
C109        C256   1.484       .  S
C110        C238   1.485       .  S
C111        C290   1.491       .  S
C112        C274   1.490       .  S
N123        C128   1.356   1_554  A
N123        C127   1.357   1_554  A
N123        H155   1.039       .  S
N124        C131   1.351       .  A
N124        C132   1.353       .  A
N125        C130   1.354       .  A
N125        C129   1.355   1_556  A
N125        H156   1.035   1_556  S
N126        C133   1.353       .  A
N126        C134   1.355       .  A
C127        C135   1.388       .  A
C127        C143   1.421   1_556  A
C128        C144   1.419       .  A
C128        C136   1.386       .  A
C129        C137   1.388   1_554  A
C129        C146   1.421       .  A
C130        C145   1.419       .  A
C130        C138   1.388       .  A
C131        C143   1.417       .  A
C131        C139   1.387       .  A
C132        C146   1.414       .  A
C132        C140   1.386       .  A
C133        C141   1.387       .  A
C133        C144   1.416       .  A
C134        C142   1.387       .  A
C134        C145   1.420       .  A
C135        C136   1.377       .  A
C135        H147   1.082       .  S
C136        H148   1.082       .  S
C137        C138   1.374       .  A
C137        H149   1.081       .  S
C138        H150   1.082       .  S
C139        C140   1.371       .  A
C139        H151   1.082       .  S
C140        H152   1.082       .  S
C141        C142   1.370       .  A
C141        H153   1.082       .  S
C142        H154   1.081       .  S
C143        C220   1.497       .  S
C144        C184   1.494       .  S
C145        C166   1.490       .  S
C146        C200   1.491       .  S
C157        C158   1.403   1_556  A
C157        C162   1.409       .  A
C157        C165   1.488       .  S
C158        C159   1.397       .  A
C158        H167   1.084       .  S
C159        C160   1.408   1_554  A
C159        H168   1.082       .  S
C160        C161   1.403       .  A
C160        C163   1.488       .  S
C161        C162   1.401       .  A
C161        H169   1.083       .  S
C162        H170   1.081       .  S
C163        H171   1.087       .  S
C163        C164   1.344       .  D
C164        H172   1.086       .  S
C165        H173   1.088   1_556  S
C165        C166   1.345       .  D
C166        H174   1.084       .  S
C175        C176   1.404       .  A
C175        C180   1.410   1_554  A
C175        C183   1.493       .  S
C176        C177   1.400       .  A
C176        H185   1.083       .  S
C177        C178   1.409       .  A
C177        H186   1.082       .  S
C178        C179   1.403   1_554  A
C178        C181   1.492       .  S
C179        C180   1.402       .  A
C179        H187   1.083       .  S
C180        H188   1.081       .  S
C181        H189   1.087   1_554  S
C181        C182   1.346       .  D
C182        H190   1.086       .  S
C183        H191   1.087       .  S
C183        C184   1.347   1_554  D
C184        H192   1.084       .  S
C193        C194   1.403       .  A
C193        C198   1.406   1_554  A
C193        C201   1.484       .  S
C194        C195   1.400       .  A
C194        H203   1.083       .  S
C195        C196   1.407   1_554  A
C195        H204   1.082       .  S
C196        C197   1.403       .  A
C196        C199   1.485       .  S
C197        C198   1.398       .  A
C197        H205   1.083       .  S
C198        H206   1.083       .  S
C199        H207   1.087       .  S
C199        C200   1.346   1_556  D
C200        H208   1.085       .  S
C201        H209   1.087       .  S
C201        C202   1.344   1_554  D
C202        H210   1.087       .  S
C211        C212   1.406       .  A
C211        C216   1.408   1_556  A
C211        C219   1.492       .  S
C212        C213   1.400       .  A
C212        H221   1.083       .  S
C213        C214   1.402   1_556  A
C213        H222   1.083       .  S
C214        C215   1.408       .  A
C214        C217   1.490       .  S
C215        C216   1.399       .  A
C215        H223   1.082       .  S
C216        H224   1.080       .  S
C217        H225   1.087   1_554  S
C217        C218   1.344       .  D
C218        H226   1.086       .  S
C219        H227   1.087       .  S
C219        C220   1.351   1_556  D
C220        H228   1.083       .  S
C229        C230   1.402       .  A
C229        C234   1.406   1_545  A
C229        C237   1.480       .  S
C230        C231   1.397       .  A
C230        H239   1.084       .  S
C231        C232   1.406       .  A
C231        H240   1.082       .  S
C232        C233   1.402   1_545  A
C232        C235   1.480       .  S
C233        C234   1.397       .  A
C233        H241   1.083       .  S
C234        H242   1.082       .  S
C235        H243   1.087   1_545  S
C235        C236   1.345       .  D
C236        H244   1.086       .  S
C237        H245   1.087       .  S
C237        C238   1.343   1_545  D
C238        H246   1.085       .  S
C247        C248   1.402       .  A
C247        C252   1.408       .  A
C247        C255   1.483       .  S
C248        C249   1.397       .  A
C248        H257   1.084       .  S
C249        C250   1.408       .  A
C249        H258   1.081       .  S
C250        C251   1.401       .  A
C250        C253   1.483       .  S
C251        C252   1.396       .  A
C251        H259   1.083   1_545  S
C252        H260   1.081   1_545  S
C253        H261   1.087       .  S
C253        C254   1.343       .  D
C254        H262   1.085       .  S
C255        H263   1.087       .  S
C255        C256   1.343   1_545  D
C256        H264   1.084       .  S
C265        C266   1.402       .  A
C265        C270   1.407   1_545  A
C265        C273   1.482       .  S
C266        C267   1.396       .  A
C266        H275   1.084       .  S
C267        C268   1.406   1_545  A
C267        H276   1.082       .  S
C268        C269   1.404       .  A
C268        C271   1.484       .  S
C269        C270   1.400       .  A
C269        H277   1.083       .  S
C270        H278   1.082       .  S
C271        H279   1.087       .  S
C271        C272   1.345       .  D
C272        H280   1.086   1_565  S
C273        H281   1.087       .  S
C273        C274   1.344   1_545  D
C274        H282   1.085       .  S
C283        C284   1.404       .  A
C283        C288   1.407   1_565  A
C283        C291   1.487       .  S
C284        C285   1.401       .  A
C284        H293   1.084       .  S
C285        C286   1.410       .  A
C285        H294   1.081       .  S
C286        C287   1.402   1_565  A
C286        C289   1.489   1_565  S
C287        C288   1.396       .  A
C287        H295   1.083       .  S
C288        H296   1.081       .  S
C289        H297   1.087       .  S
C289        C290   1.344   1_545  D
C290        H298   1.084       .  S
C291        H299   1.087       .  S
C291        C292   1.348       .  D
C292        H300   1.085       .  S
C301        C302   1.404   1_455  A
C301        C306   1.410       .  A
C301        C309   1.489       .  S
C302        C303   1.397       .  A
C302        H311   1.084       .  S
C303        C304   1.407   1_655  A
C303        H312   1.082       .  S
C304        C305   1.402       .  A
C304        C307   1.487       .  S
C305        C306   1.399       .  A
C305        H313   1.083       .  S
C306        H314   1.079       .  S
C307        H315   1.087       .  S
C307        C308   1.344       .  D
C308        H316   1.085   1_455  S
C309        H317   1.088   1_455  S
C309        C310   1.347       .  D
C310        H318   1.082       .  S
C319        C320   1.405       .  A
C319        C324   1.409   1_455  A
C319        C327   1.492       .  S
C320        C321   1.399       .  A
C320        H329   1.083       .  S
C321        C322   1.406       .  A
C321        H330   1.082       .  S
C322        C323   1.404   1_455  A
C322        C325   1.489       .  S
C323        C324   1.402       .  A
C323        H331   1.083       .  S
C324        H332   1.081       .  S
C325        H333   1.087   1_455  S
C325        C326   1.347       .  D
C326        H334   1.086       .  S
C327        H335   1.087       .  S
C327        C328   1.348   1_455  D
C328        H336   1.084       .  S
C337        C338   1.403       .  A
C337        C342   1.408       .  A
C337        C345   1.488       .  S
C338        C339   1.398       .  A
C338        H347   1.084       .  S
C339        C340   1.410       .  A
C339        H348   1.081       .  S
C340        C341   1.403       .  A
C340        C343   1.490       .  S
C341        C342   1.399       .  A
C341        H349   1.083       .  S
C342        H350   1.081       .  S
C343        H351   1.087       .  S
C343        C344   1.345   1_655  D
C344        H352   1.085       .  S
C345        H353   1.087       .  S
C345        C346   1.346       .  D
C346        H354   1.084   1_655  S
C355        C356   1.406   1_655  A
C355        C360   1.407       .  A
C355        C363   1.490       .  S
C356        C357   1.402       .  A
C356        H365   1.083       .  S
C357        C358   1.407   1_455  A
C357        H366   1.082       .  S
C358        C359   1.404       .  A
C358        C361   1.488       .  S
C359        C360   1.398       .  A
C359        H367   1.083       .  S
C360        H368   1.081       .  S
C361        H369   1.088       .  S
C361        C362   1.347   1_655  D
C362        H370   1.084       .  S
C363        H371   1.087   1_655  S
C363        C364   1.349       .  D
C364        H372   1.085       .  S
