geometry optimzed in LAMMPS
_audit_creation_date              2020-11-30 
_audit_creation_method            'lammps2cif' 
_symmetry_space_group_name_H-M    'P1' 
_symmetry_Int_Tables_number       1 
_symmetry_cell_setting            triclinic 
loop_ 
_symmetry_equiv_pos_as_xyz 
  x,y,z 
_cell_length_a                    20.8714448 
_cell_length_b                    21.9178312028958 
_cell_length_c                    24.46083740983107 
_cell_angle_alpha                 89.16720437070053 
_cell_angle_beta                  81.37891056384096 
_cell_angle_gamma                 88.40861404499965 
loop_ 
_atom_site_label 
_atom_site_type_symbol 
_atom_site_fract_x 
_atom_site_fract_y 
_atom_site_fract_z 
_atom_site_charge 
N1          N  0.97553035  0.43224174  0.05715731    -0.34900
N2          N  0.05154375  0.42904234  0.94896680    -0.55500
N3          N  0.03479827  0.56428555  0.94072731    -0.34900
N4          N  0.96187543  0.56813596  0.04997722    -0.55500
C5          C  0.99946934  0.37390282  0.05700974     0.28600
C6          C  0.95288342  0.44670871  0.11028856     0.28600
C7          C  0.07017293  0.55286609  0.89082935     0.28600
C8          C  0.02368401  0.62562375  0.94450352     0.28600
C9          C  0.04923297  0.36797522  0.95811042     0.37300
C10         C  0.07872684  0.43744888  0.89581599     0.37300
C11         C  0.92315484  0.55772873  0.09827641     0.37300
C12         C  0.95407689  0.62793029  0.03707213     0.37300
C13         C  0.99035246  0.35078985  0.11063033    -0.20200
C14         C  0.96135758  0.39658554  0.14411899    -0.20200
C15         C  0.08243470  0.60777710  0.86262876    -0.20200
C16         C  0.05352308  0.65339608  0.89639463    -0.20200
C17         C  0.07690942  0.33740636  0.91082899    -0.21300
C18         C  0.09507584  0.38123631  0.87137724    -0.21300
C19         C  0.89026794  0.61136556  0.11632711    -0.21300
C20         C  0.90974892  0.65571057  0.07754594    -0.21300
C21         C  0.02651303  0.33991693  0.00970035    -0.16600
C22         C  0.92224856  0.50271696  0.12927865    -0.16600
C23         C  0.98587479  0.65758125  0.98896426    -0.16600
C24         C  0.08903963  0.49455263  0.86833323    -0.16600
H25         H  0.00307331  0.30562714  0.12460449     0.16300
H26         H  0.94768801  0.39304914  0.18849378     0.16300
H27         H  0.10886730  0.61445703  0.82150854     0.16300
H28         H  0.05380312  0.70155609  0.88602939     0.16300
H29         H  0.08430233  0.28875955  0.90512345     0.14600
H30         H  0.11804989  0.37254864  0.82943947     0.14600
H31         H  0.85638790  0.61806620  0.15395356     0.14600
H32         H  0.89289881  0.70286792  0.07900454     0.14600
H33         H  0.96838944  0.45855362  0.02286403     0.27800
H34         H  0.01763875  0.53123756  0.96909917     0.27800
N35         N  0.97055669  0.57833216  0.45324604    -0.34900
N36         N  0.94927170  0.44387569  0.46226100    -0.55500
N37         N  0.03356984  0.43327797  0.54485875    -0.34900
N38         N  0.05625148  0.56727316  0.53492296    -0.55500
C39         C  0.94210878  0.56954961  0.40783079     0.28600
C40         C  0.99580911  0.63511349  0.44853513     0.28600
C41         C  0.00692025  0.37714845  0.55003512     0.28600
C42         C  0.05792641  0.44354336  0.59205654     0.28600
C43         C  0.91928043  0.45697299  0.41803172     0.37300
C44         C  0.94938329  0.38221516  0.46827467     0.37300
C45         C  0.06181180  0.62814669  0.52553358     0.37300
C46         C  0.08953402  0.55337562  0.57697847     0.37300
C47         C  0.94755866  0.62192772  0.37500074    -0.20200
C48         C  0.98192136  0.66266068  0.40015736    -0.20200
C49         C  0.01516758  0.35158905  0.60069469    -0.20200
C50         C  0.04756523  0.39304986  0.62695807    -0.20200
C51         C  0.89948906  0.40349239  0.39662000    -0.21300
C52         C  0.91908162  0.35640067  0.42787234    -0.21300
C53         C  0.09968519  0.65257132  0.56140646    -0.21300
C54         C  0.11751216  0.60535664  0.59352408    -0.21300
C55         C  0.91451147  0.51504342  0.39261022    -0.16600
C56         C  0.03331490  0.66226738  0.48524233    -0.16600
C57         C  0.08922866  0.49672018  0.60539315    -0.16600
C58         C  0.97424386  0.34869672  0.51078178    -0.16600
H59         H  0.93095994  0.62933586  0.33552377     0.16300
H60         H  0.99728121  0.70656903  0.38303935     0.16300
H61         H  0.99791463  0.30834448  0.61804696     0.16300
H62         H  0.06069668  0.38699844  0.66788576     0.16300
H63         H  0.87544755  0.39848841  0.36075110     0.14600
H64         H  0.91244284  0.30857396  0.42067899     0.14600
H65         H  0.11232788  0.69962932  0.56541723     0.14600
H66         H  0.14584859  0.60944266  0.62684672     0.14600
H67         H  0.96974936  0.54817023  0.48643822     0.27800
H68         H  0.03908936  0.46123659  0.50984604     0.27800
O69         O  0.03243228  0.14384266  0.03975085    -0.79200
O70         O  0.02262974  0.86770415  0.03896708    -0.63900
O71         O  0.04858412  0.03434999  0.99741206    -1.10500
C72         C  0.84904846  0.00258356  0.94595687     1.07700
O73         O  0.97353263  0.85516763  0.96195390    -0.77100
O74         O  0.98288356  0.93264566  0.86014030    -0.64700
Ni75       Ni  0.03641354  0.05952974  0.06562023     1.34900
C76         C  0.99408955  0.98827342  0.84539104     0.86400
O77         O  0.12456222  0.94969954  0.04618725    -0.77700
O78         O  0.12834775  0.04937566  0.06474553    -0.87900
C79         C  0.99726810  0.83369756  0.00499501     0.86000
O80         O  0.02225604  0.06883691  0.14121799    -0.66100
O81         O  0.87718175  0.94985592  0.93757719    -0.85400
C82         C  0.00927758  0.01387452  0.15673732     0.86800
C83         C  0.15622530  0.99647359  0.05682314     1.08400
H84         H  0.91698268  0.95622439  0.02967401     0.40200
O85         O  0.95632130  0.96459776  0.00484368    -1.08100
O86         O  0.99524243  0.02972224  0.88566169    -0.64700
Ni87       Ni  0.96703047  0.04493950  0.97396549     1.26300
O88         O  0.00801396  0.97150484  0.11710011    -0.65000
O89         O  0.88013115  0.04945723  0.95700646    -0.77300
C90         C  0.00719346  0.16516734  0.99755294     0.86200
O91         O  0.98091888  0.13130884  0.96424733    -0.64400
Ni92       Ni  0.96908793  0.94000317  0.93632070     1.27400
Ni93       Ni  0.03744537  0.95427524  0.02892272     1.26100
H94         H  0.08789762  0.04235571  0.97233419     0.40700
O95         O  0.05795656  0.85648078  0.50558805    -0.79200
O96         O  0.02281359  0.13264112  0.54678652    -0.63900
O97         O  0.99079560  0.96279783  0.53747766    -1.10500
C98         C  0.98785052  0.01128234  0.33695850     1.07700
O99         O  0.94560214  0.15461387  0.49560409    -0.77100
O100        O  0.87603240  0.07084868  0.44975460    -0.64700
Ni101      Ni  0.04080413  0.90322755  0.57334793     1.34900
C102        C  0.85921769  0.01634561  0.46210326     0.86400
O103        O  0.00524261  0.04196617  0.63051510    -0.77700
O104        O  0.02527984  0.94283475  0.64662117    -0.87900
C105        C  0.98949185  0.17163228  0.52298577     0.86000
O106        O  0.12504870  0.93905061  0.55545440    -0.66100
O107        O  0.97252658  0.06521339  0.35558169    -0.85400
C108        C  0.14260421  0.99278174  0.54067082     0.86800
C109        C  0.01270720  0.99708101  0.66521952     1.08400
H110        H  0.05508710  0.05331386  0.44738922     0.40200
O111        O  0.01076427  0.04735912  0.46418644    -1.08100
O112        O  0.90029698  0.97271195  0.46514580    -0.64700
Ni113      Ni  0.99406005  0.96340380  0.45556367     1.26300
O114        O  0.10205720  0.03618327  0.53502888    -0.65000
O115        O  0.99832885  0.96736169  0.37149913    -0.77300
C116        C  0.01466387  0.83891712  0.47790385     0.86200
O117        O  0.98057393  0.87745792  0.45454418    -0.64400
Ni118      Ni  0.95987581  0.10630547  0.42857325     1.27400
Ni119      Ni  0.00838183  0.04656168  0.54609908     1.24700
H120        H  0.94624767  0.95731414  0.55395149     0.40700
N121        N  0.57440150  0.95703469  0.04521935    -0.34900
N122        N  0.57203204  0.02416798  0.94218106    -0.55500
N123        N  0.43187616  0.04250171  0.97211628    -0.34900
N124        N  0.43504526  0.98099415  0.07689618    -0.55500
C125        C  0.63874079  0.96074067  0.02718382     0.28600
C126        C  0.56739782  0.94093962  0.09933535     0.28600
C127        C  0.44334563  0.07854296  0.92652474     0.28600
C128        C  0.37117341  0.05647765  0.99763537     0.28600
C129        C  0.63361558  0.00181971  0.93229688     0.37300
C130        C  0.55810171  0.04646819  0.89343046     0.37300
C131        C  0.44626877  0.94772737  0.12156644     0.37300
C132        C  0.37011379  0.99029208  0.08163075     0.37300
C133        C  0.67302831  0.94605307  0.07018737    -0.20200
C134        C  0.62810856  0.93360003  0.11564548    -0.20200
C135        C  0.38936153  0.11573055  0.92280776    -0.20200
C136        C  0.34382946  0.10177668  0.96749233    -0.20200
C137        C  0.65938245  0.01107876  0.87730189    -0.21300
C138        C  0.61155637  0.03945748  0.85266308    -0.21300
C139        C  0.38822905  0.93691947  0.15555842    -0.21300
C140        C  0.34005663  0.96381751  0.13029088    -0.21300
C141        C  0.66775011  0.97522381  0.97268778    -0.16600
C142        C  0.50819267  0.93039491  0.13412029    -0.16600
C143        C  0.33817204  0.02660174  0.04504336    -0.16600
C144        C  0.49866333  0.07500232  0.88558229    -0.16600
H145        H  0.72508946  0.94458395  0.06909787     0.16300
H146        H  0.63908973  0.92050749  0.15613291     0.16300
H147        H  0.38300313  0.14881209  0.89064277     0.16300
H148        H  0.29573177  0.12233237  0.97604469     0.16300
H149        H  0.70751467  0.99855846  0.85693963     0.14600
H150        H  0.61575103  0.05339828  0.80967010     0.14600
H151        H  0.38134923  0.91317366  0.19502923     0.14600
H152        H  0.28902038  0.96522501  0.14694607     0.14600
H153        H  0.53793934  0.95918568  0.02074650     0.27800
H154        H  0.46027482  0.00509346  0.98079451     0.27800
N155        N  0.58275805  0.96895017  0.45593164    -0.34900
N156        N  0.43819906  0.95360371  0.46908859    -0.55500
N157        N  0.42000952  0.03944862  0.55777172    -0.34900
N158        N  0.56432918  0.05417297  0.54539844    -0.55500
C159        C  0.57623860  0.94216004  0.40759840     0.28600
C160        C  0.64320491  0.99245912  0.44984137     0.28600
C161        C  0.35722061  0.02276855  0.56001845     0.28600
C162        C  0.42436931  0.07054148  0.60441200     0.28600
C163        C  0.45756099  0.91593929  0.42625338     0.37300
C164        C  0.37304285  0.94857647  0.48216243     0.37300
C165        C  0.63006950  0.05460925  0.53520718     0.37300
C166        C  0.54626193  0.08365633  0.59364356     0.37300
C167        C  0.63390627  0.94694440  0.37126575    -0.20200
C168        C  0.67586880  0.97852177  0.39781952    -0.20200
C169        C  0.32083485  0.04703518  0.60713263    -0.20200
C170        C  0.36294555  0.07680859  0.63508205    -0.20200
C171        C  0.40440030  0.88604173  0.41257545    -0.21300
C172        C  0.35112213  0.90661695  0.44788071    -0.21300
C173        C  0.65374140  0.08579865  0.57638868    -0.21300
C174        C  0.60097462  0.10393430  0.61338006    -0.21300
C175        C  0.52014742  0.91377290  0.39441323    -0.16600
C176        C  0.66935578  0.02789665  0.48901113    -0.16600
C177        C  0.48215411  0.08982154  0.62263057    -0.16600
C178        C  0.33256138  0.98169734  0.52400364    -0.16600
H179        H  0.64451933  0.93034553  0.32933981     0.16300
H180        H  0.72428650  0.99134769  0.37997373     0.16300
H181        H  0.26977320  0.04131926  0.62165396     0.16300
H182        H  0.34994791  0.09882595  0.67466379     0.16300
H183        H  0.40373824  0.85394932  0.37945236     0.14600
H184        H  0.30173516  0.89304781  0.44747402     0.14600
H185        H  0.70386981  0.09368111  0.58007698     0.14600
H186        H  0.60291009  0.12862565  0.65107297     0.14600
H187        H  0.54895706  0.96785002  0.49171197     0.27800
H188        H  0.45837575  0.03035584  0.52679626     0.27800
C189        C  0.49235607  0.09892330  0.83112042    -0.16800
C190        C  0.48540574  0.11144227  0.78424959     0.07200
C191        C  0.47843069  0.11590453  0.72796263     0.09100
C192        C  0.47674120  0.10978663  0.67937735    -0.17700
C193        C  0.52410681  0.88958781  0.33931978    -0.16800
C194        C  0.52258350  0.88217168  0.29097184     0.07200
C195        C  0.51705421  0.88857609  0.23466225     0.09100
C196        C  0.51196605  0.90407885  0.18813267    -0.17700
C197        C  0.21323104  0.00714362  0.52989229    -0.14800
C198        C  0.26170412  0.96608751  0.53479991    -0.29900
H199        H  0.22592969  0.05369577  0.51788086     0.14300
H200        H  0.24987270  0.91888847  0.54482355     0.14800
C201        C  0.78884379  0.00139016  0.47248718    -0.14800
C202        C  0.74007868  0.04382794  0.47854431    -0.29900
H203        H  0.77660829  0.95346996  0.47555109     0.14300
H204        H  0.75185929  0.09178461  0.47875218     0.14800
C205        C  0.26636408  0.03566244  0.05699758    -0.14800
C206        C  0.22669714  0.98841801  0.05688606    -0.29900
H207        H  0.24621174  0.08192000  0.05924869     0.14300
H208        H  0.24751977  0.94248274  0.05155374     0.14800
C209        C  0.77892888  0.01017857  0.94603858    -0.14800
C210        C  0.73869967  0.96378733  0.95873053    -0.29900
H211        H  0.75898086  0.05622268  0.94283512     0.14300
H212        H  0.75814741  0.91874197  0.96738563     0.14800
C213        C  0.00717482  0.00513678  0.72918102    -0.11600
C214        C  0.00322689  0.00279445  0.78200134    -0.13200
C215        C  0.99831587  0.00163541  0.22038541    -0.11600
C216        C  0.99353502  0.00184531  0.27322020    -0.13200
C217        C  0.04771715  0.72925313  0.47989926    -0.14800
C218        C  0.00272985  0.77297648  0.47332254    -0.29900
H219        H  0.09562371  0.74359185  0.48558829     0.14300
H220        H  0.95432832  0.76032497  0.46742591     0.14800
C221        C  0.95947223  0.28174020  0.51602061    -0.14800
C222        C  0.00213334  0.23769280  0.52741764    -0.29900
H223        H  0.91304978  0.26766576  0.50626974     0.14300
H224        H  0.04912252  0.25006166  0.53716606     0.14800
C225        C  0.11562544  0.49317275  0.81033044    -0.16800
C226        C  0.12747563  0.49322778  0.76074917     0.07200
C227        C  0.12737322  0.49427094  0.70341206     0.09100
C228        C  0.11545455  0.49527290  0.65686634    -0.17700
C229        C  0.88895775  0.51642247  0.34078427    -0.16800
C230        C  0.87879799  0.51447727  0.29379149     0.07200
C231        C  0.88122833  0.51000611  0.23634294     0.09100
C232        C  0.89473239  0.50601596  0.18700594    -0.17700
C233        C  0.99712925  0.76639446  0.01600758    -0.14800
C234        C  0.97658614  0.72547076  0.98205591    -0.29900
H235        H  0.01802950  0.74959438  0.05162935     0.14300
H236        H  0.95836744  0.74175134  0.94500425     0.14800
C237        C  0.03480644  0.27215256  0.01646363    -0.14800
C238        C  0.00627127  0.23212610  0.98701970    -0.29900
H239        H  0.06068319  0.25523543  0.04916752     0.14300
H240        H  0.97888208  0.24940472  0.95538492     0.14800
loop_ 
_geom_bond_atom_site_label_1 
_geom_bond_atom_site_label_2 
_geom_bond_distance 
_geom_bond_site_symmetry_2 
_ccdc_geom_bond_type 
N1            C6   1.354       .  A
N1            C5   1.360       .  A
N1           H33   1.038       .  S
N2            C9   1.355       .  A
N2           C10   1.350       .  A
N3            C8   1.360       .  A
N3            C7   1.351       .  A
N3           H34   1.029       .  S
N4           C11   1.348       .  A
N4           C12   1.355       .  A
C5           C13   1.387       .  A
C5           C21   1.421   1_655  A
C6           C22   1.420       .  A
C6           C14   1.389       .  A
C7           C15   1.389       .  A
C7           C24   1.421       .  A
C8           C23   1.425   1_455  A
C8           C16   1.387       .  A
C9           C21   1.418   1_556  A
C9           C17   1.386       .  A
C10          C24   1.418       .  A
C10          C18   1.389       .  A
C11          C19   1.388       .  A
C11          C22   1.414       .  A
C12          C20   1.385       .  A
C12          C23   1.420   1_554  A
C13          C14   1.373       .  A
C13          H25   1.082   1_655  S
C14          H26   1.082       .  S
C15          C16   1.374       .  A
C15          H27   1.082       .  S
C16          H28   1.082       .  S
C17          C18   1.372       .  A
C17          H29   1.081       .  S
C18          H30   1.082       .  S
C19          C20   1.375       .  A
C19          H31   1.082       .  S
C20          H32   1.082       .  S
C21         C237   1.500       .  S
C22         C232   1.444       .  S
C23         C234   1.506       .  S
C24         C225   1.444       .  S
N35          C40   1.362       .  A
N35          C39   1.354       .  A
N35          H67   1.038       .  S
N36          C43   1.352       .  A
N36          C44   1.357       .  A
N37          C42   1.353       .  A
N37          C41   1.361       .  A
N37          H68   1.040       .  S
N38          C45   1.356       .  A
N38          C46   1.352       .  A
C39          C47   1.389       .  A
C39          C55   1.419       .  A
C40          C56   1.423   1_655  A
C40          C48   1.386       .  A
C41          C49   1.385       .  A
C41          C58   1.419   1_455  A
C42          C57   1.417       .  A
C42          C50   1.390       .  A
C43          C55   1.416       .  A
C43          C51   1.389       .  A
C44          C58   1.417       .  A
C44          C52   1.386       .  A
C45          C53   1.388       .  A
C45          C56   1.419       .  A
C46          C54   1.387       .  A
C46          C57   1.414       .  A
C47          C48   1.369       .  A
C47          H59   1.082       .  S
C48          H60   1.081       .  S
C49          C50   1.370       .  A
C49          H61   1.082   1_455  S
C50          H62   1.082       .  S
C51          C52   1.365       .  A
C51          H63   1.082       .  S
C52          H64   1.082       .  S
C53          C54   1.367       .  A
C53          H65   1.081       .  S
C54          H66   1.082       .  S
C55         C229   1.447       .  S
C56         C217   1.507       .  S
C57         C228   1.446       .  S
C58         C221   1.508       .  S
O69         Ni75   1.948       .  S
O69          C90   1.303   1_554  A
O70         Ni93   1.937       .  S
O70          C79   1.303   1_455  A
O71         Ni75   1.745   1_556  S
O71         Ni93   1.913   1_546  S
O71         Ni87   1.883   1_455  S
O71          H94   0.967       .  S
C72         C209   1.468       .  S
C72          O89   1.283       .  A
C72          O81   1.287   1_545  A
O73         Ni92   1.958       .  S
O73          C79   1.305   1_556  A
O74         Ni92   1.851       .  S
O74          C76   1.284       .  A
Ni75         O78   1.922       .  S
Ni75         O80   1.842       .  S
C76         C214   1.563   1_665  S
C76          O86   1.353   1_565  A
O77         Ni93   1.927       .  S
O77          C83   1.285       .  A
O78          C83   1.287   1_545  A
C79         C233   1.496       .  S
O80          C82   1.282       .  A
O81         Ni92   1.920       .  S
C82         C215   1.560   1_455  S
C82          O88   1.356   1_545  A
C83         C206   1.477       .  S
H84          O85   0.966       .  S
O85         Ni93   1.881   1_655  S
O85         Ni87   1.912   1_564  S
O85         Ni92   1.748   1_554  S
O86         Ni87   2.180       .  S
Ni87         O91   1.929       .  S
Ni87         O89   1.920       .  S
O88         Ni93   2.188       .  S
C90         C238   1.486       .  S
C90          O91   1.300   1_455  A
O95        Ni101   1.943       .  S
O95         C116   1.278       .  A
O96        Ni119   1.920       .  S
O96         C105   1.275   1_455  A
O97        Ni101   1.931   1_655  S
O97        Ni119   1.903   1_665  S
O97        Ni113   1.994       .  S
O97         H120   0.966       .  S
C98         C216   1.562       .  S
C98         O115   1.307   1_545  A
C98         O107   1.288       .  A
O99        Ni118   1.945       .  S
O99         C105   1.279       .  A
O100       Ni118   1.930       .  S
O100        C102   1.274       .  A
Ni101       O104   1.982       .  S
Ni101       O106   1.933       .  S
C102        C201   1.497       .  S
C102        O112   1.275   1_545  A
O103       Ni119   2.057       .  S
O103        C109   1.311   1_545  A
O104        C109   1.285       .  A
C105        C222   1.487   1_655  S
O106        C108   1.274       .  A
O107       Ni118   1.990       .  S
C108        C197   1.499   1_565  S
C108        O114   1.275   1_565  A
C109        C213   1.564   1_565  S
H110        O111   0.966       .  S
O111       Ni119   1.997       .  S
O111       Ni113   1.903   1_445  S
O111       Ni118   1.930   1_455  S
O112       Ni113   1.941       .  S
Ni113       O117   1.913       .  S
Ni113       O115   2.046       .  S
O114       Ni119   1.941       .  S
C116        C218   1.482       .  S
C116        O117   1.273   1_455  A
N121        C126   1.353       .  A
N121        C125   1.353       .  A
N121        H153   1.036       .  S
N122        C129   1.351       .  A
N122        C130   1.351       .  A
N123        C128   1.355       .  A
N123        C127   1.353       .  A
N123        H154   1.036       .  S
N124        C131   1.351       .  A
N124        C132   1.353       .  A
C125        C133   1.388       .  A
C125        C141   1.414   1_554  A
C126        C142   1.414       .  A
C126        C134   1.389       .  A
C127        C135   1.386       .  A
C127        C144   1.412       .  A
C128        C143   1.418   1_556  A
C128        C136   1.389       .  A
C129        C141   1.412   1_545  A
C129        C137   1.386       .  A
C130        C144   1.411       .  A
C130        C138   1.387       .  A
C131        C139   1.387       .  A
C131        C142   1.413       .  A
C132        C140   1.387       .  A
C132        C143   1.417   1_565  A
C133        C134   1.372       .  A
C133        H145   1.083       .  S
C134        H146   1.083       .  S
C135        C136   1.373       .  A
C135        H147   1.082       .  S
C136        H148   1.081       .  S
C137        C138   1.372       .  A
C137        H149   1.082   1_545  S
C138        H150   1.082       .  S
C139        C140   1.372       .  A
C139        H151   1.082       .  S
C140        H152   1.082       .  S
C141        C210   1.484       .  S
C142        C196   1.446       .  S
C143        C205   1.492       .  S
C144        C189   1.448       .  S
N155        C160   1.363       .  A
N155        C159   1.354       .  A
N155        H187   1.039       .  S
N156        C163   1.350       .  A
N156        C164   1.357       .  A
N157        C162   1.353       .  A
N157        C161   1.363       .  A
N157        H188   1.034       .  S
N158        C165   1.358       .  A
N158        C166   1.352       .  A
C159        C167   1.390       .  A
C159        C175   1.422       .  A
C160        C176   1.422   1_565  A
C160        C168   1.385       .  A
C161        C169   1.386       .  A
C161        C178   1.427   1_545  A
C162        C177   1.424       .  A
C162        C170   1.389       .  A
C163        C175   1.417       .  A
C163        C171   1.389       .  A
C164        C178   1.420       .  A
C164        C172   1.385       .  A
C165        C173   1.384       .  A
C165        C176   1.417       .  A
C166        C174   1.391       .  A
C166        C177   1.421       .  A
C167        C168   1.373       .  A
C167        H179   1.082       .  S
C168        H180   1.082       .  S
C169        C170   1.375       .  A
C169        H181   1.082       .  S
C170        H182   1.082       .  S
C171        C172   1.372       .  A
C171        H183   1.083       .  S
C172        H184   1.082       .  S
C173        C174   1.370       .  A
C173        H185   1.082       .  S
C174        H186   1.082       .  S
C175        C193   1.445       .  S
C176        C202   1.510       .  S
C177        C192   1.449       .  S
C178        C198   1.511       .  S
C189        C190   1.204       .  T
C190        C191   1.408       .  S
C191        C192   1.204       .  T
C193        C194   1.201       .  T
C194        C195   1.404       .  S
C195        C196   1.202       .  T
C197        C198   1.353   1_545  D
C197        H199   1.087       .  S
C198        H200   1.086       .  S
C201        C202   1.352       .  D
C201        H203   1.087   1_545  S
C202        H204   1.086       .  S
C205        C206   1.344   1_545  D
C205        H207   1.086       .  S
C206        H208   1.087       .  S
C209        C210   1.340   1_545  D
C209        H211   1.087       .  S
C210        H212   1.087       .  S
C213        C214   1.283       .  T
C215        C216   1.281       .  T
C217        C218   1.348       .  D
C217        H219   1.086       .  S
C218        H220   1.086   1_455  S
C221        C222   1.350   1_655  D
C221        H223   1.086       .  S
C222        H224   1.086       .  S
C225        C226   1.201       .  T
C226        C227   1.403       .  S
C227        C228   1.201       .  T
C229        C230   1.201       .  T
C230        C231   1.403       .  S
C231        C232   1.201       .  T
C233        C234   1.352   1_554  D
C233        H235   1.087   1_655  S
C234        H236   1.086       .  S
C237        C238   1.349   1_554  D
C237        H239   1.086       .  S
C238        H240   1.087   1_455  S
