geometry optimzed in LAMMPS
_audit_creation_date              2020-11-30 
_audit_creation_method            'lammps2cif' 
_symmetry_space_group_name_H-M    'P1' 
_symmetry_Int_Tables_number       1 
_symmetry_cell_setting            triclinic 
loop_ 
_symmetry_equiv_pos_as_xyz 
  x,y,z 
_cell_length_a                    26.40274614 
_cell_length_b                    22.417416278419847 
_cell_length_c                    22.117757539049364 
_cell_angle_alpha                 98.97478399915595 
_cell_angle_beta                  88.76659762404931 
_cell_angle_gamma                 89.81317902480528 
loop_ 
_atom_site_label 
_atom_site_type_symbol 
_atom_site_fract_x 
_atom_site_fract_y 
_atom_site_fract_z 
_atom_site_charge 
O1          O  0.91486125  0.49664248  0.91184610    -0.76000
C2          C  0.87452335  0.50316206  0.09282253     0.85100
O3          O  0.03883820  0.63192125  0.99366832    -0.77100
O4          O  0.04349981  0.48718720  0.13836998    -0.78600
O5          O  0.01354746  0.33856600  0.96622734    -0.78400
O6          O  0.96540770  0.42067686  0.86889044    -0.77000
Zn7        Zn  0.94149561  0.53465401  0.98907957     1.55700
O8          O  0.99186234  0.36140563  0.06529628    -0.78400
Cd9        Cd  0.01957720  0.42088047  0.93550563     1.59700
Cd10       Cd  0.05950480  0.54611259  0.00763965     1.59600
O11         O  0.09547256  0.42574544  0.90237666    -0.78400
O12         O  0.00101868  0.48888740  0.00324175    -1.88900
Cd13       Cd  0.98540448  0.45557543  0.08058729     1.59900
O14         O  0.11987520  0.51569603  0.94967135    -0.78400
O15         O  0.90980632  0.47444850  0.11509835    -0.77000
C16         C  0.99552958  0.65351180  0.98462900     0.85500
C17         C  0.92579720  0.45358366  0.86949746     0.85200
O18         O  0.88292513  0.52951599  0.04693393    -0.76000
C19         C  0.00273290  0.32301631  0.01788599     0.86000
O20         O  0.95553164  0.62190570  0.98267677    -0.76100
C21         C  0.12920223  0.46654760  0.91401866     0.86100
C22         C  0.08217162  0.52081199  0.13473482     0.86400
O23         O  0.09133823  0.54923518  0.09051728    -0.78500
O24         O  0.96225552  0.34544211  0.51200137    -0.76000
C25         C  0.92560433  0.50948282  0.63059851     0.85100
O26         O  0.91561693  0.49303188  0.38363725    -0.77100
O27         O  0.01142957  0.63080952  0.53487766    -0.78600
O28         O  0.12250763  0.45349016  0.54444822    -0.78400
O29         O  0.04571982  0.33757632  0.49542845    -0.77000
Zn30       Zn  0.94523601  0.43249919  0.50854602     1.55700
O31         O  0.09549977  0.54221758  0.59443353    -0.78400
Cd32       Cd  0.06438248  0.42491347  0.48593432     1.59700
Cd33       Cd  0.98854329  0.51495132  0.41907416     1.59600
O34         O  0.09860872  0.42732819  0.40338938    -0.78400
O35         O  0.00394905  0.48024405  0.49466784    -1.88900
Cd36       Cd  0.01976869  0.54721109  0.56347940     1.59900
O37         O  0.04885930  0.48947223  0.35993194    -0.78400
O38         O  0.96447138  0.54334843  0.63118492    -0.77000
C39         C  0.88044095  0.46297560  0.40537839     0.85500
C40         C  0.00311173  0.31469964  0.50624249     0.85200
O41         O  0.91609014  0.46756572  0.58720858    -0.76000
C42         C  0.13019991  0.50192091  0.58122190     0.86000
O43         O  0.88780685  0.43670248  0.45125723    -0.76100
C44         C  0.08894139  0.45764979  0.36117636     0.86100
C45         C  0.99938187  0.64670374  0.48417135     0.86400
O46         O  0.98982930  0.60860517  0.43690173    -0.78500
O47         O  0.59035610  0.51036376  0.90782765    -0.76000
C48         C  0.49895580  0.66237988  0.99083176     0.85100
O49         O  0.59063952  0.47838294  0.10705557    -0.77100
O50         O  0.40428218  0.54119279  0.08893867    -0.78600
O51         O  0.41291884  0.43283702  0.89459122    -0.78400
O52         O  0.54564652  0.43096860  0.86410199    -0.77000
Zn53       Zn  0.55951099  0.54504437  0.98629678     1.55700
O54         O  0.38314594  0.51903911  0.94746008    -0.78400
Cd55       Cd  0.48745782  0.42813228  0.92871825     1.59700
Cd56       Cd  0.51696127  0.46001395  0.07323762     1.59600
O57         O  0.49196675  0.34453422  0.95840339    -0.78400
O58         O  0.50135050  0.49540071  0.99822877    -1.88900
Cd59       Cd  0.43966763  0.54884711  0.00777624     1.59900
O60         O  0.51266658  0.36733753  0.05651914    -0.78400
O61         O  0.45674687  0.63811277  0.00133049    -0.77000
C62         C  0.62552847  0.51014177  0.08726581     0.85500
C63         C  0.58351233  0.46648352  0.86536434     0.85200
O64         O  0.54029576  0.63237075  0.98412281    -0.76000
C65         C  0.37708846  0.47143486  0.90889235     0.86000
O66         O  0.61747158  0.54003420  0.04405247    -0.76100
C67         C  0.50206288  0.32915123  0.00994928     0.86100
C68         C  0.41575517  0.51205317  0.13152517     0.86400
O69         O  0.45767348  0.48405320  0.13354191    -0.78500
O70         O  0.60058945  0.55258274  0.58846650    -0.76000
C71         C  0.63319936  0.47698124  0.40940593     0.85100
O72         O  0.47240055  0.64641445  0.48442681    -0.77100
O73         O  0.46552365  0.43676247  0.37176373    -0.78600
O74         O  0.49635449  0.37982554  0.56492312    -0.78400
O75         O  0.54520094  0.50248299  0.64001962    -0.77000
Zn76       Zn  0.57003038  0.55623719  0.50852349     1.55700
O77         O  0.51871832  0.35489541  0.46633335    -0.78400
Cd78       Cd  0.48990838  0.47314612  0.57822939     1.59700
Cd79       Cd  0.45138207  0.55791423  0.48762014     1.59600
O80         O  0.41349395  0.49132829  0.60787358    -0.78400
O81         O  0.50972094  0.50581341  0.50190207    -1.88900
Cd82       Cd  0.52349975  0.43666240  0.43366666     1.59900
O83         O  0.38934898  0.55470008  0.54590340    -0.78400
O84         O  0.59765936  0.43912776  0.39491286    -0.77000
C85         C  0.51551820  0.67174823  0.48976494     0.85500
C86         C  0.58748831  0.52895246  0.63480023     0.85200
O87         O  0.62622046  0.52350138  0.44955831    -0.76000
C88         C  0.50785117  0.34064761  0.51859151     0.86000
O89         O  0.55555785  0.64307787  0.49920413    -0.76100
C90         C  0.37943924  0.52352992  0.58793729     0.86100
C91         C  0.42840436  0.47298444  0.36972394     0.86400
O92         O  0.42125019  0.52097605  0.40762504    -0.78500
N93         N  0.98774481  0.92661778  0.06081615    -0.34100
N94         N  0.98596818  0.91949947  0.92232051    -0.54700
N95         N  0.99953170  0.04720237  0.93501532    -0.34100
N96         N  0.00083721  0.05416958  0.07362329    -0.54700
C97         C  0.99511352  0.86681009  0.04147660     0.29500
C98         C  0.99891359  0.93771470  0.12152735     0.29500
C99         C  0.99029420  0.03608106  0.87367492     0.29500
C100        C  0.99666717  0.10770584  0.95337199     0.29500
C101        C  0.98141847  0.86035511  0.92736314     0.38100
C102        C  0.98243388  0.92387955  0.86190256     0.38100
C103        C  0.00098350  0.04985127  0.13442924     0.38100
C104        C  0.00417918  0.11362580  0.06895361     0.38100
C105        C  0.01026966  0.83970359  0.09060327    -0.19400
C106        C  0.01290173  0.88415448  0.14054769    -0.19400
C107        C  0.98253727  0.09061319  0.85315515    -0.19400
C108        C  0.98692674  0.13543058  0.90277507    -0.19400
C109        C  0.97434349  0.82699466  0.86986528    -0.20400
C110        C  0.97502632  0.86694071  0.82867207    -0.20400
C111        C  0.00483099  0.10704310  0.16827882    -0.20400
C112        C  0.00707494  0.14706882  0.12717011    -0.20400
C113        C  0.98762914  0.83468598  0.98161535    -0.15800
C114        C  0.99943951  0.99502285  0.15987501    -0.15800
C115        C  0.00186845  0.13957282  0.01409212    -0.15800
C116        C  0.98556685  0.97833307  0.83612626    -0.15800
H117        H  0.01963250  0.79265042  0.09046445     0.17100
H118        H  0.02575971  0.87765700  0.18515098     0.17100
H119        H  0.97244119  0.09773402  0.80775440     0.17100
H120        H  0.98184634  0.18318899  0.90178837     0.17100
H121        H  0.97014544  0.77855405  0.85845779     0.15400
H122        H  0.97091482  0.85485995  0.77978725     0.15400
H123        H  0.00587860  0.11917649  0.21749885     0.15400
H124        H  0.00968807  0.19563985  0.13909131     0.15400
H125        H  0.97233409  0.95660117  0.03458722     0.28700
H126        H  0.00983324  0.01629716  0.96320115     0.28700
N127        N  0.98782150  0.92311713  0.56147298    -0.34100
N128        N  0.98592213  0.91272516  0.42239060    -0.54700
N129        N  0.99689067  0.04013287  0.43240502    -0.34100
N130        N  0.99877549  0.05065276  0.57126162    -0.54700
C131        C  0.99376423  0.86273347  0.54432449     0.29500
C132        C  0.99695293  0.93597633  0.62277761     0.29500
C133        C  0.98539327  0.02767688  0.37184956     0.29500
C134        C  0.98998743  0.10020906  0.45026073     0.29500
C135        C  0.98512187  0.85351352  0.42851638     0.38100
C136        C  0.98506232  0.91562633  0.36130431     0.38100
C137        C  0.00093022  0.04806151  0.63219554     0.38100
C138        C  0.00254051  0.10950752  0.56482904     0.38100
C139        C  0.00533569  0.83690938  0.59563716    -0.19400
C140        C  0.00759237  0.88276420  0.64451519    -0.19400
C141        C  0.97135212  0.08064054  0.35158581    -0.19400
C142        C  0.97468999  0.12616191  0.40047563    -0.19400
C143        C  0.98289435  0.81869842  0.37088196    -0.20400
C144        C  0.98297375  0.85773909  0.32866194    -0.20400
C145        C  0.00630255  0.10578024  0.66438090    -0.20400
C146        C  0.00746707  0.14445047  0.62198890    -0.20400
C147        C  0.98960838  0.82927407  0.48418392    -0.15800
C148        C  0.99919758  0.99441178  0.65927274    -0.15800
C149        C  0.99797811  0.13350244  0.50939142    -0.15800
C150        C  0.98532982  0.96974458  0.33460177    -0.15800
H151        H  0.01290536  0.78979432  0.59765090     0.17100
H152        H  0.01821682  0.87738537  0.69027614     0.17100
H153        H  0.95820988  0.08610656  0.30681145     0.17100
H154        H  0.96559406  0.17312934  0.39961156     0.17100
H155        H  0.98230152  0.76992434  0.36009570     0.15400
H156        H  0.98206997  0.84459180  0.27953062     0.15400
H157        H  0.00906284  0.11908467  0.71329380     0.15400
H158        H  0.01054059  0.19309287  0.63236843     0.15400
H159        H  0.97559665  0.95241342  0.53290521     0.28700
H160        H  0.01246038  0.01114208  0.45930876     0.28700
N161        N  0.51463428  0.92847780  0.92951003    -0.34100
N162        N  0.50902276  0.05625815  0.93992158    -0.54700
N163        N  0.51041405  0.06571393  0.07920965    -0.34100
N164        N  0.51005143  0.93800094  0.06826202    -0.54700
C165        C  0.50909937  0.93354427  0.86918326     0.29500
C166        C  0.50493145  0.87048783  0.93618370     0.29500
C167        C  0.49824980  0.12267043  0.07106116     0.29500
C168        C  0.49921378  0.06029245  0.13867003     0.29500
C169        C  0.52093731  0.04419577  0.87912344     0.38100
C170        C  0.51846222  0.11543839  0.95802001     0.38100
C171        C  0.51268920  0.87734480  0.05164206     0.38100
C172        C  0.51283302  0.94956189  0.13043760     0.38100
C173        C  0.49681934  0.87748116  0.83726420    -0.19400
C174        C  0.49411527  0.83798954  0.87919158    -0.19400
C175        C  0.47994537  0.15434108  0.12616601    -0.19400
C176        C  0.48063584  0.11528453  0.16859984    -0.19400
C177        C  0.53830604  0.09592923  0.85883611    -0.20400
C178        C  0.53620573  0.14107901  0.90840143    -0.20400
C179        C  0.51691492  0.85029260  0.10375171    -0.20400
C180        C  0.51659128  0.89564011  0.15321842    -0.20400
C181        C  0.51578583  0.98700155  0.84195634    -0.15800
C182        C  0.50736277  0.84494180  0.99133514    -0.15800
C183        C  0.50627467  0.00755929  0.16681424    -0.15800
C184        C  0.50690307  0.14830642  0.01676786    -0.15800
H185        H  0.49014874  0.86597600  0.78881130     0.17100
H186        H  0.48522985  0.79045044  0.86867019     0.17100
H187        H  0.46776956  0.20110014  0.13513075     0.17100
H188        H  0.46857943  0.12652049  0.21604563     0.17100
H189        H  0.55209362  0.10070791  0.81350987     0.15400
H190        H  0.54685914  0.18758993  0.90794323     0.15400
H191        H  0.51847705  0.80250255  0.10628722     0.15400
H192        H  0.51685925  0.88880709  0.20043711     0.15400
H193        H  0.52848749  0.96069738  0.96364207     0.28700
H194        H  0.53008588  0.03502336  0.04713566     0.28700
N195        N  0.51843582  0.93834152  0.43073899    -0.34100
N196        N  0.51481975  0.94568443  0.56973917    -0.54700
N197        N  0.50472744  0.07386424  0.58121940    -0.34100
N198        N  0.51507653  0.06627934  0.44281403    -0.54700
C199        C  0.52924691  0.88085009  0.43812256     0.29500
C200        C  0.53049387  0.94442882  0.37167581     0.29500
C201        C  0.50831706  0.06855140  0.64172441     0.29500
C202        C  0.51104799  0.13278633  0.57577951     0.29500
C203        C  0.50659227  0.88630317  0.55056513     0.38100
C204        C  0.50100917  0.95695495  0.63007835     0.38100
C205        C  0.51623114  0.05526675  0.38044915     0.38100
C206        C  0.51010004  0.12669161  0.45973216     0.38100
C207        C  0.54779668  0.84955958  0.38295351    -0.19400
C208        C  0.54856588  0.88938271  0.34130098    -0.19400
C209        C  0.51604297  0.12542263  0.67493672    -0.19400
C210        C  0.51767893  0.16564197  0.63370094    -0.19400
C211        C  0.48786089  0.85977221  0.59911423    -0.20400
C212        C  0.48383736  0.90447681  0.64899772    -0.20400
C213        C  0.51325356  0.10935441  0.35787832    -0.20400
C214        C  0.50891392  0.15419174  0.40759870    -0.20400
C215        C  0.51872838  0.85427022  0.49141473    -0.15800
C216        C  0.52418027  0.99756060  0.34397136    -0.15800
C217        C  0.50963123  0.15867709  0.52076714    -0.15800
C218        C  0.50349705  0.01420507  0.66799417    -0.15800
H219        H  0.55901982  0.80249166  0.37334699     0.17100
H220        H  0.56101777  0.87849914  0.29398450     0.17100
H221        H  0.52022046  0.13715027  0.72384406     0.17100
H222        H  0.52329130  0.21384898  0.64525575     0.17100
H223        H  0.47746570  0.81303276  0.59855531     0.15400
H224        H  0.46855082  0.89900221  0.69348469     0.15400
H225        H  0.51560373  0.11660253  0.31076820     0.15400
H226        H  0.50647257  0.20198120  0.40531233     0.15400
H227        H  0.49863073  0.96886072  0.46291061     0.28700
H228        H  0.49430243  0.04072133  0.54575076     0.28700
C229        C  0.52024667  0.98115427  0.77225603    -0.13900
C230        C  0.49809166  0.01911744  0.73761700    -0.29100
H231        H  0.54237488  0.94327706  0.74880243     0.15100
H232        H  0.47588507  0.05680931  0.76132715     0.15700
C233        C  0.49881463  0.01287954  0.23615646    -0.13900
C234        C  0.53227316  0.99270935  0.27474596    -0.29100
H235        H  0.46457579  0.03537100  0.25620015     0.15100
H236        H  0.56651513  0.97014113  0.25480393     0.15700
C237        C  0.97730404  0.97395681  0.76740697    -0.13900
C238        C  0.00709745  0.00029011  0.72813952    -0.29100
H239        H  0.94654034  0.94567103  0.74803467     0.15100
H240        H  0.03794239  0.02865045  0.74715151     0.15700
C241        C  0.00572594  0.99845737  0.22890788    -0.13900
C242        C  0.97928340  0.96502458  0.26540229    -0.29100
H243        H  0.03267446  0.03092862  0.25074079     0.15100
H244        H  0.95246483  0.93223817  0.24381028     0.15700
C245        C  0.50905566  0.22422081  0.52667202    -0.10800
C246        C  0.50846939  0.27787926  0.52529322    -0.12300
C247        C  0.51993133  0.78881772  0.48554863    -0.10800
C248        C  0.51888195  0.73499894  0.48575201    -0.12300
C249        C  0.50180710  0.26638651  0.01624971    -0.10800
C250        C  0.50317964  0.21333387  0.02021543    -0.12300
C251        C  0.50028512  0.72587917  0.98695006    -0.10800
C252        C  0.50295499  0.77962497  0.98636418    -0.12300
C253        C  0.62352673  0.52573220  0.68067366    -0.16000
C254        C  0.64273298  0.50631053  0.72193788     0.08100
C255        C  0.64024533  0.47650789  0.77247196     0.09900
C256        C  0.61856575  0.46150035  0.81546936    -0.16900
C257        C  0.37926633  0.50651140  0.17810905    -0.16000
C258        C  0.36254125  0.48972771  0.22298888     0.08100
C259        C  0.36958227  0.46858154  0.27796546     0.09900
C260        C  0.39348656  0.46203261  0.32163103    -0.16900
C261        C  0.99951043  0.19856168  0.51317545    -0.10800
C262        C  0.00103395  0.25196797  0.51161913    -0.12300
C263        C  0.99279475  0.76381550  0.47957563    -0.10800
C264        C  0.99597140  0.71010615  0.48029137    -0.12300
C265        C  0.82949573  0.46122101  0.38141353    -0.16000
C266        C  0.78402640  0.46068532  0.37316955     0.08100
C267        C  0.72978511  0.46198996  0.37410032     0.09900
C268        C  0.68424137  0.46616926  0.38388788    -0.16900
C269        C  0.32683021  0.52182405  0.60904285    -0.16000
C270        C  0.28088323  0.51967197  0.61539441     0.08100
C271        C  0.22662991  0.51640413  0.61352781     0.09900
C272        C  0.18128972  0.51191021  0.60436822    -0.16900
C273        C  0.00243616  0.20532058  0.02057440    -0.10800
C274        C  0.00255921  0.25950775  0.02205881    -0.12300
C275        C  0.98902649  0.76928658  0.97578950    -0.10800
C276        C  0.99156270  0.71583105  0.97739012    -0.12300
C277        C  0.82236715  0.50359633  0.11590689    -0.16000
C278        C  0.77634916  0.50504733  0.12243878     0.08100
C279        C  0.72209764  0.50747222  0.12000004     0.09900
C280        C  0.67682680  0.50937378  0.11038289    -0.16900
C281        C  0.18088292  0.45659868  0.89008853    -0.16000
C282        C  0.22650377  0.45370012  0.88028262     0.08100
C283        C  0.28079109  0.45501367  0.87834678     0.09900
C284        C  0.32630934  0.45992112  0.88558985    -0.16900
C285        C  0.89317138  0.51277669  0.68260852    -0.16000
C286        C  0.87454434  0.49498843  0.72592600     0.08100
C287        C  0.87491678  0.46406457  0.77559749     0.09900
C288        C  0.89391526  0.44765300  0.81855845    -0.16900
C289        C  0.12621355  0.46058612  0.31481728    -0.16000
C290        C  0.14596968  0.47843839  0.27216660     0.08100
C291        C  0.14261380  0.50658504  0.22078968     0.09900
C292        C  0.11933026  0.52169867  0.18006599    -0.16900
loop_ 
_geom_bond_atom_site_label_1 
_geom_bond_atom_site_label_2 
_geom_bond_distance 
_geom_bond_site_symmetry_2 
_ccdc_geom_bond_type 
O1           C17   1.264       .  A
O1           Zn7   1.934       .  S
C2           O18   1.268       .  A
C2           O15   1.281       .  A
C2          C277   1.458       .  S
O3           C16   1.272   1_455  A
O3          Cd10   2.069   1_556  S
O4           C22   1.280       .  A
O4          Cd13   2.073   1_455  S
O5           C19   1.273   1_556  A
O5           Cd9   2.069       .  S
O6           C17   1.276       .  A
O6           Cd9   2.075   1_655  S
Zn7          O18   2.001   1_556  S
Zn7          O20   2.018       .  S
Zn7          O12   1.932   1_656  S
O8           C19   1.275   1_655  A
O8          Cd13   2.091       .  S
Cd9          O11   2.128       .  S
Cd9          O12   2.015   1_556  S
Cd10         O14   2.069   1_554  S
Cd10         O23   2.024       .  S
Cd10         O12   2.005       .  S
O11          C21   1.280       .  A
O12         Cd13   2.006   1_455  S
Cd13         O15   2.139       .  S
O14          C21   1.271       .  A
C16          O20   1.271       .  A
C16         C276   1.435       .  S
C17         C288   1.411       .  S
C19         C274   1.441       .  S
C21         C281   1.457       .  S
C22          O23   1.267       .  A
C22         C292   1.416       .  S
O24          C40   1.271   1_655  A
O24         Zn30   2.015       .  S
C25          O41   1.264       .  A
C25          O38   1.278       .  A
C25         C285   1.412       .  S
O26          C39   1.278       .  A
O26         Cd33   2.125       .  S
O27          C45   1.275   1_455  A
O27         Cd36   2.082       .  S
O28          C42   1.271       .  A
O28         Cd32   2.067       .  S
O29          C40   1.271       .  A
O29         Cd32   2.062       .  S
Zn30         O41   1.936       .  S
Zn30         O43   2.008       .  S
Zn30         O35   1.933   1_655  S
O31          C42   1.281       .  A
O31         Cd36   2.136       .  S
Cd32         O34   2.028       .  S
Cd32         O35   2.005       .  S
Cd33         O37   2.060   1_655  S
Cd33         O46   2.075       .  S
Cd33         O35   2.000   1_655  S
O34          C44   1.267       .  A
O35         Cd36   2.016       .  S
Cd36         O38   2.081   1_455  S
O37          C44   1.278       .  A
C39          O43   1.268       .  A
C39         C265   1.455       .  S
C40         C262   1.431       .  S
C42         C272   1.459       .  S
C44         C289   1.415       .  S
C45          O46   1.273       .  A
C45         C264   1.440       .  S
O47          C63   1.266       .  A
O47         Zn53   1.948       .  S
C48          O64   1.274       .  A
C48          O61   1.274   1_556  A
C48         C251   1.440       .  S
O49          C62   1.277       .  A
O49         Cd56   2.118       .  S
O50          C68   1.268       .  A
O50         Cd59   2.037       .  S
O51          C65   1.281       .  A
O51         Cd55   2.131       .  S
O52          C63   1.278       .  A
O52         Cd55   2.084       .  S
Zn53         O64   2.029       .  S
Zn53         O66   2.028   1_556  S
Zn53         O58   1.937       .  S
O54          C65   1.271       .  A
O54         Cd59   2.066   1_556  S
Cd55         O57   2.084       .  S
Cd55         O58   2.019       .  S
Cd56         O60   2.057       .  S
Cd56         O69   2.049       .  S
Cd56         O58   1.997   1_554  S
O57          C67   1.275   1_556  A
O58         Cd59   2.006   1_556  S
Cd59         O61   2.079       .  S
O60          C67   1.269       .  A
C62          O66   1.271       .  A
C62         C280   1.459       .  S
C63         C256   1.416       .  S
C65         C284   1.456       .  S
C67         C249   1.435       .  S
C68          O69   1.276       .  A
C68         C257   1.415       .  S
O70          C86   1.267       .  A
O70         Zn76   1.972       .  S
C71          O87   1.270       .  A
C71          O84   1.279       .  A
C71         C268   1.455       .  S
O72          C85   1.273       .  A
O72         Cd79   2.073       .  S
O73          C91   1.277       .  A
O73         Cd82   2.076       .  S
O74          C88   1.272       .  A
O74         Cd78   2.073       .  S
O75          C86   1.278       .  A
O75         Cd78   2.060       .  S
Zn76         O87   2.013       .  S
Zn76         O89   2.025       .  S
Zn76         O81   1.951       .  S
O77          C88   1.273       .  A
O77         Cd82   2.076       .  S
Cd78         O80   2.126       .  S
Cd78         O81   2.003       .  S
Cd79         O83   2.071       .  S
Cd79         O92   2.014       .  S
Cd79         O81   1.990       .  S
O80          C90   1.279       .  A
O81         Cd82   2.014       .  S
Cd82         O84   2.125       .  S
O83          C90   1.271       .  A
C85          O89   1.273       .  A
C85         C248   1.437       .  S
C86         C253   1.416       .  S
C88         C246   1.438       .  S
C90         C269   1.458       .  S
C91          O92   1.267       .  A
C91         C260   1.416       .  S
N93          C98   1.366       .  A
N93          C97   1.354       .  A
N93         H125   1.041       .  S
N94         C101   1.353       .  A
N94         C102   1.360       .  A
N95         C100   1.355       .  A
N95          C99   1.368       .  A
N95         H126   1.041   1_655  S
N96         C103   1.363       .  A
N96         C104   1.356       .  A
C97         C105   1.390   1_655  A
C97         C113   1.423   1_554  A
C98         C114   1.425       .  A
C98         C106   1.384   1_655  A
C99         C107   1.385       .  A
C99         C116   1.432   1_545  A
C100        C115   1.429   1_656  A
C100        C108   1.390       .  A
C101        C113   1.422       .  A
C101        C109   1.388       .  A
C102        C116   1.428       .  A
C102        C110   1.387       .  A
C103        C111   1.385       .  A
C103        C114   1.430   1_445  A
C104        C112   1.389       .  A
C104        C115   1.427       .  A
C105        C106   1.371       .  A
C105        H117   1.082       .  S
C106        H118   1.081       .  S
C107        C108   1.375       .  A
C107        H119   1.080       .  S
C108        H120   1.082       .  S
C109        C110   1.373       .  A
C109        H121   1.082       .  S
C110        H122   1.081       .  S
C111        C112   1.374       .  A
C111        H123   1.081       .  S
C112        H124   1.082       .  S
C113        C275   1.452       .  S
C114        C241   1.529   1_655  S
C115        C273   1.459       .  S
C116        C237   1.528       .  S
N127        C132   1.368       .  A
N127        C131   1.355       .  A
N127        H159   1.035       .  S
N128        C135   1.355       .  A
N128        C136   1.363       .  A
N129        C134   1.354       .  A
N129        C133   1.366       .  A
N129        H160   1.037   1_655  S
N130        C137   1.360   1_655  A
N130        C138   1.353   1_655  A
C131        C139   1.391   1_655  A
C131        C147   1.428       .  A
C132        C148   1.430       .  A
C132        C140   1.384   1_655  A
C133        C141   1.385       .  A
C133        C150   1.425   1_545  A
C134        C149   1.421       .  A
C134        C142   1.390       .  A
C135        C147   1.428       .  A
C135        C143   1.389       .  A
C136        C150   1.430       .  A
C136        C144   1.385       .  A
C137        C145   1.385       .  A
C137        C148   1.425   1_445  A
C138        C146   1.388       .  A
C138        C149   1.421   1_455  A
C139        C140   1.373       .  A
C139        H151   1.082       .  S
C140        H152   1.081       .  S
C141        C142   1.371       .  A
C141        H153   1.081       .  S
C142        H154   1.082       .  S
C143        C144   1.376       .  A
C143        H155   1.082       .  S
C144        H156   1.081       .  S
C145        C146   1.373       .  A
C145        H157   1.081       .  S
C146        H158   1.082       .  S
C147        C263   1.457       .  S
C148        C238   1.527   1_665  S
C149        C261   1.449       .  S
C150        C242   1.529       .  S
N161        C166   1.356       .  A
N161        C165   1.368       .  A
N161        H193   1.034       .  S
N162        C169   1.359       .  A
N162        C170   1.350       .  A
N163        C168   1.366       .  A
N163        C167   1.356       .  A
N163        H194   1.037       .  S
N164        C171   1.353       .  A
N164        C172   1.363       .  A
C165        C173   1.385       .  A
C165        C181   1.432       .  A
C166        C182   1.429       .  A
C166        C174   1.390       .  A
C167        C175   1.388       .  A
C167        C184   1.424       .  A
C168        C183   1.433       .  A
C168        C176   1.388       .  A
C169        C181   1.420   1_545  A
C169        C177   1.383       .  A
C170        C184   1.417   1_556  A
C170        C178   1.389       .  A
C171        C179   1.390       .  A
C171        C182   1.426   1_554  A
C172        C180   1.384       .  A
C172        C183   1.426   1_565  A
C173        C174   1.379       .  A
C173        H185   1.081       .  S
C174        H186   1.082       .  S
C175        C176   1.380       .  A
C175        H187   1.082       .  S
C176        H188   1.081       .  S
C177        C178   1.371       .  A
C177        H189   1.080       .  S
C178        H190   1.082       .  S
C179        C180   1.372       .  A
C179        H191   1.082       .  S
C180        H192   1.079       .  S
C181        C229   1.529       .  S
C182        C252   1.456       .  S
C183        C233   1.528       .  S
C184        C250   1.451       .  S
N195        C200   1.365       .  A
N195        C199   1.354       .  A
N195        H227   1.038       .  S
N196        C203   1.352       .  A
N196        C204   1.361       .  A
N197        C202   1.355       .  A
N197        C201   1.367       .  A
N197        H228   1.035       .  S
N198        C205   1.363       .  A
N198        C206   1.353       .  A
C199        C207   1.388       .  A
C199        C215   1.424       .  A
C200        C216   1.433       .  A
C200        C208   1.388       .  A
C201        C209   1.387       .  A
C201        C218   1.434       .  A
C202        C217   1.429       .  A
C202        C210   1.389       .  A
C203        C215   1.420       .  A
C203        C211   1.389       .  A
C204        C218   1.422   1_565  A
C204        C212   1.383       .  A
C205        C213   1.384       .  A
C205        C216   1.426   1_545  A
C206        C214   1.391       .  A
C206        C217   1.426       .  A
C207        C208   1.379       .  A
C207        H219   1.082       .  S
C208        H220   1.081       .  S
C209        C210   1.379       .  A
C209        H221   1.081       .  S
C210        H222   1.082       .  S
C211        C212   1.372       .  A
C211        H223   1.082       .  S
C212        H224   1.080       .  S
C213        C214   1.372       .  A
C213        H225   1.080       .  S
C214        H226   1.082       .  S
C215        C247   1.453       .  S
C216        C234   1.528       .  S
C217        C245   1.455       .  S
C218        C230   1.530       .  S
C229        C230   1.369   1_565  D
C229        H231   1.085       .  S
C230        H232   1.085       .  S
C233        C234   1.365   1_545  D
C233        H235   1.085       .  S
C234        H236   1.085       .  S
C237        C238   1.362   1_665  D
C237        H239   1.086       .  S
C238        H240   1.086       .  S
C241        C242   1.367   1_455  D
C241        H243   1.085   1_565  S
C242        H244   1.085       .  S
C245        C246   1.208       .  T
C247        C248   1.208       .  T
C249        C250   1.207       .  T
C251        C252   1.209       .  T
C253        C254   1.193       .  T
C254        C255   1.389       .  S
C255        C256   1.193       .  T
C257        C258   1.192       .  T
C258        C259   1.388       .  S
C259        C260   1.193       .  T
C261        C262   1.204   1_655  T
C263        C264   1.209       .  T
C265        C266   1.218       .  T
C266        C267   1.432       .  S
C267        C268   1.218       .  T
C269        C270   1.220       .  T
C270        C271   1.436       .  S
C271        C272   1.220       .  T
C273        C274   1.210       .  T
C275        C276   1.206       .  T
C277        C278   1.220       .  T
C278        C279   1.436       .  S
C279        C280   1.220       .  T
C281        C282   1.219       .  T
C282        C283   1.434       .  S
C283        C284   1.219       .  T
C285        C286   1.191       .  T
C286        C287   1.388       .  S
C287        C288   1.191       .  T
C289        C290   1.192       .  T
C290        C291   1.387       .  S
C291        C292   1.192       .  T
