geometry optimzed in LAMMPS
_audit_creation_date              2020-11-30 
_audit_creation_method            'lammps2cif' 
_symmetry_space_group_name_H-M    'P1' 
_symmetry_Int_Tables_number       1 
_symmetry_cell_setting            triclinic 
loop_ 
_symmetry_equiv_pos_as_xyz 
  x,y,z 
_cell_length_a                    22.51762314 
_cell_length_b                    22.371601029215725 
_cell_length_c                    24.222517578496007 
_cell_angle_alpha                 89.96566611625425 
_cell_angle_beta                  89.87655821518635 
_cell_angle_gamma                 90.63209514240947 
loop_ 
_atom_site_label 
_atom_site_type_symbol 
_atom_site_fract_x 
_atom_site_fract_y 
_atom_site_fract_z 
_atom_site_charge 
C1          C  0.51551852  0.08135555  0.66828932     0.01600
C2          C  0.44047178  0.01121970  0.78455333     0.01600
C3          C  0.59010711  0.01907576  0.77397767     0.01600
C4          C  0.49871879  0.93178179  0.67969320     0.01600
C5          C  0.07768271  0.52732076  0.67381968     0.01600
C6          C  0.98385449  0.43929418  0.76848535     0.01600
C7          C  0.99899491  0.60362304  0.77100930     0.01600
C8          C  0.92011074  0.52541070  0.66985161     0.01600
In9        In  0.50256647  0.72807824  0.47496158     1.36900
C10         C  0.59080996  0.65041317  0.46945557     0.81600
O11         O  0.55183495  0.78178106  0.53905679    -0.56800
O12         O  0.45746441  0.78328513  0.53986449    -0.47700
C13         C  0.50026704  0.80943574  0.39459692     0.74300
O14         O  0.54793828  0.78964020  0.41409355    -0.42600
C15         C  0.41563948  0.64620131  0.47853955     0.79000
O16         O  0.56443676  0.66879276  0.42700060    -0.54400
O17         O  0.43923567  0.66781406  0.52126222    -0.44500
O18         O  0.57326966  0.67291088  0.51414163    -0.50900
C19         C  0.50532873  0.80085476  0.56163230     0.89200
O20         O  0.45370313  0.78789406  0.41593806    -0.52800
O21         O  0.43515557  0.66757790  0.43384058    -0.56100
In22       In  0.71537599  0.51732252  0.46789036     1.36900
C23         C  0.63677828  0.60481006  0.46781634     0.81600
O24         O  0.77448565  0.56209619  0.40522810    -0.56800
O25         O  0.78032743  0.46792790  0.41448157    -0.47700
C26         C  0.78794253  0.52254505  0.55284104     0.74300
O27         O  0.77191311  0.56865971  0.52731681    -0.42600
C28         C  0.63741290  0.42771360  0.46983851     0.79000
O29         O  0.66129439  0.58615386  0.51106452    -0.54400
O30         O  0.65645813  0.44993854  0.42523986    -0.44500
O31         O  0.65351714  0.57987706  0.42384710    -0.50900
C32         C  0.79957734  0.51449359  0.39109030     0.89200
O33         O  0.76654648  0.47386009  0.53546856    -0.52800
O34         O  0.65915315  0.45033414  0.51295103    -0.56100
In35       In  0.29208141  0.50861732  0.48562811     1.36900
C36         C  0.37040129  0.59863557  0.48085261     0.81600
O37         O  0.23887890  0.55662197  0.54965838    -0.56800
O38         O  0.23873428  0.46161110  0.55165132    -0.47700
C39         C  0.20837756  0.50663882  0.40824833     0.74300
O40         O  0.22973921  0.55455465  0.42729839    -0.42600
C41         C  0.37080569  0.42096398  0.48208528     0.79000
O42         O  0.34775953  0.57556300  0.43826580    -0.54400
O43         O  0.35167086  0.44224987  0.52675963    -0.44500
O44         O  0.35225111  0.57654195  0.52573850    -0.50900
C45         C  0.21999436  0.50946924  0.57235224     0.89200
O46         O  0.22986247  0.45964837  0.42822623    -0.52800
O47         O  0.34863914  0.44332869  0.43917112    -0.56100
In48       In  0.50626372  0.29856472  0.47688205     1.36900
C49         C  0.59220441  0.38043251  0.47192712     0.81600
O50         O  0.55719885  0.24140756  0.41748318    -0.56800
O51         O  0.46290586  0.23795803  0.41442011    -0.47700
C52         C  0.50825512  0.22225254  0.56072011     0.74300
O53         O  0.55427484  0.24880987  0.54351235    -0.42600
C54         C  0.41692847  0.37541860  0.48023045     0.79000
O55         O  0.57342847  0.35895263  0.51685527    -0.54400
O56         O  0.43678832  0.35460385  0.43565822    -0.44500
O57         O  0.56801592  0.35918754  0.42929195    -0.50900
C58         C  0.51141190  0.21952748  0.39524965     0.89200
O59         O  0.46112812  0.23486281  0.53558482    -0.52800
O60         O  0.44126393  0.35550687  0.52309743    -0.56100
C61         C  0.42864142  0.02562227  0.17598837     0.01600
C62         C  0.49735512  0.93416128  0.26908398     0.01600
C63         C  0.58943756  0.00535612  0.17667026     0.01600
C64         C  0.51918444  0.09628124  0.26918345     0.01600
C65         C  0.02207020  0.43633043  0.17872375     0.01600
C66         C  0.92996302  0.52251419  0.27247214     0.01600
C67         C  0.00825045  0.59803890  0.18459768     0.01600
C68         C  0.08984750  0.50261335  0.27929342     0.01600
In69       In  0.79793822  0.01348218  0.97394079     1.36900
C70         C  0.87831170  0.92715473  0.97725313     0.81600
O71         O  0.74515884  0.96302307  0.90976025    -0.56800
O72         O  0.73999233  0.05776226  0.91089919    -0.47700
C73         C  0.71658884  0.01092114  0.05390541     0.74300
O74         O  0.73795373  0.96419421  0.03332423    -0.42600
C75         C  0.87504579  0.10504484  0.97348962     0.79000
O76         O  0.85676300  0.95000600  0.02028482    -0.54400
O77         O  0.85408088  0.08256829  0.92993126    -0.44500
O78         O  0.85807174  0.94757229  0.93271377    -0.50900
C79         C  0.72339773  0.00942424  0.88887596     0.89200
O80         O  0.73717125  0.05905611  0.03439773    -0.52800
O81         O  0.85552835  0.08185737  0.01743679    -0.56100
In82       In  0.01284214  0.80363074  0.98004638     1.36900
C83         C  0.92453105  0.88162186  0.97863286     0.81600
O84         O  0.96907236  0.74662494  0.04489571    -0.56800
O85         O  0.06304714  0.74317137  0.03726695    -0.47700
C86         C  0.00890955  0.72495345  0.89836044     0.74300
O87         O  0.96297579  0.74212748  0.92316242    -0.42600
C88         C  0.09942774  0.88526166  0.97846956     0.79000
O89         O  0.94636818  0.85972203  0.93532786    -0.54400
O90         O  0.07825648  0.86459006  0.02284561    -0.44500
O91         O  0.94659431  0.86244021  0.02293891    -0.50900
C92         C  0.01690211  0.72397080  0.06113413     0.89200
O93         O  0.05688518  0.74834977  0.91464678    -0.52800
O94         O  0.07794264  0.86268551  0.93517909    -0.56100
In95       In  0.00761208  0.23442561  0.97109304     1.36900
C96         C  0.92021076  0.15288148  0.97287962     0.81600
O97         O  0.95787207  0.29350977  0.91286770    -0.56800
O98         O  0.05166782  0.28862142  0.90400954    -0.47700
C99         C  0.01200108  0.31652864  0.05030423     0.74300
O100        O  0.96388814  0.29311963  0.03440318    -0.42600
C101        C  0.09625739  0.15681243  0.97205824     0.79000
O102        O  0.94293721  0.17405027  0.01627147    -0.54400
O103        O  0.07439383  0.17680121  0.92799637    -0.44500
O104        O  0.94074005  0.17469754  0.92874058    -0.50900
C105        C  0.00380998  0.31114288  0.88767984     0.89200
O106        O  0.05784354  0.29728866  0.02676337    -0.52800
O107        O  0.07397188  0.17765861  0.01566241    -0.56100
In108      In  0.22166644  0.02360602  0.97325735     1.36900
C109        C  0.14410098  0.93325230  0.97697908     0.81600
O110        O  0.28199046  0.97593940  0.03219923    -0.56800
O111        O  0.28085498  0.07085408  0.03426151    -0.47700
C112        C  0.29804285  0.02297743  0.88953208     0.74300
O113        O  0.27360934  0.97607931  0.90773898    -0.42600
C114        C  0.14251186  0.11126611  0.97251748     0.79000
O115        O  0.16316917  0.95514988  0.93233130    -0.54400
O116        O  0.16344297  0.09016328  0.01649865    -0.44500
O117        O  0.16524284  0.95690982  0.01997449    -0.50900
C118        C  0.30232679  0.02335102  0.05319518     0.89200
O119        O  0.28258071  0.07053981  0.91304775    -0.52800
O120        O  0.16313474  0.08880075  0.92894005    -0.56100
C121        C  0.10079905  0.56313804  0.24845796    -0.12400
C122        C  0.06548765  0.60326117  0.22064166    -0.27600
H123        H  0.14420603  0.58255824  0.25802930     0.18200
H124        H  0.08778517  0.64644353  0.21556731     0.17200
C125        C  0.01829101  0.67889800  0.10324441    -0.09200
C126        C  0.01595186  0.64121723  0.13886322    -0.10800
C127        C  0.98827310  0.53229835  0.30086677    -0.12400
C128        C  0.02874115  0.49038391  0.30120034    -0.27600
H129        H  0.00274372  0.57816091  0.30802884     0.16600
H130        H  0.01395518  0.44404604  0.30381015     0.17200
C131        C  0.91390771  0.58058002  0.24311570    -0.12400
C132        C  0.95146308  0.61675539  0.21423839    -0.27600
H133        H  0.87153546  0.60074816  0.25371320     0.16600
H134        H  0.93338720  0.66033577  0.20385777     0.17200
C135        C  0.03636451  0.49726563  0.15654246    -0.12400
C136        C  0.99624922  0.53948122  0.15669019    -0.27600
H137        H  0.08287091  0.51067174  0.15430966     0.16600
H138        H  0.95023524  0.52673632  0.14924358     0.17200
C139        C  0.10948174  0.44762708  0.24682109    -0.12400
C140        C  0.07631368  0.41507866  0.21070353    -0.27600
H141        H  0.15066976  0.42652782  0.25949184     0.16600
H142        H  0.09630252  0.37326255  0.19758503     0.17200
C143        C  0.92285548  0.46543155  0.23596055    -0.12400
C144        C  0.96223099  0.42747943  0.21047531    -0.27600
H145        H  0.87902087  0.44473914  0.24041452     0.16600
H146        H  0.94218118  0.38373437  0.20250601     0.17200
C147        C  0.01769354  0.39743634  0.12954556    -0.09200
C148        C  0.01459129  0.36155825  0.09244408    -0.10800
C149        C  0.61332518  0.04760779  0.22153062    -0.12400
C150        C  0.58532343  0.09069952  0.25192058    -0.27600
H151        H  0.66147945  0.04776776  0.22591671     0.16600
H152        H  0.61606530  0.11954906  0.27449975     0.17200
C153        C  0.63423124  0.00756951  0.13190995    -0.09200
C154        C  0.67179331  0.00932683  0.09624573    -0.10800
C155        C  0.52278566  0.98965376  0.29410422    -0.12400
C156        C  0.49328650  0.04072901  0.29384059    -0.27600
H157        H  0.57021889  0.98978236  0.30208230     0.16600
H158        H  0.44573370  0.04061915  0.30137519     0.17200
C159        C  0.53958469  0.91026123  0.22467462    -0.12400
C160        C  0.58287979  0.93880275  0.19427825    -0.27600
H161        H  0.53947567  0.86174346  0.22077138     0.16600
H162        H  0.61147948  0.90798616  0.17210913     0.17200
C163        C  0.53480317  0.03058439  0.15128910    -0.12400
C164        C  0.48361637  0.00040609  0.15102580    -0.27600
H165        H  0.53531686  0.07840533  0.14359206     0.16600
H166        H  0.48323839  0.95257449  0.14344748     0.17200
C167        C  0.43495784  0.09210558  0.19371057    -0.12400
C168        C  0.47798976  0.12042543  0.22428510    -0.27600
H169        H  0.40681827  0.12308637  0.17129369     0.16600
H170        H  0.47861417  0.16893130  0.22012740     0.17200
C171        C  0.40403937  0.98315136  0.22047372    -0.12400
C172        C  0.43155399  0.93981437  0.25089511    -0.27600
H173        H  0.35580892  0.98287602  0.22432088     0.16600
H174        H  0.40037707  0.91076569  0.27289990     0.17200
C175        C  0.34703949  0.02330167  0.09534626    -0.09200
C176        C  0.38446416  0.02386904  0.13095187    -0.10800
C177        C  0.51438025  0.17660562  0.35133356    -0.09200
C178        C  0.51687391  0.14040847  0.31449231    -0.10800
C179        C  0.16350701  0.50570598  0.36621190    -0.09200
C180        C  0.12819101  0.50473899  0.32878222    -0.10800
C181        C  0.84709590  0.51370982  0.35165045    -0.09200
C182        C  0.88620275  0.51591319  0.31760909    -0.10800
C183        C  0.49842858  0.88982012  0.31444322    -0.09200
C184        C  0.49915190  0.85324005  0.35115654    -0.10800
C185        C  0.86766969  0.52601576  0.63172019    -0.09200
C186        C  0.82917083  0.52505393  0.59739706    -0.10800
C187        C  0.93781228  0.61350880  0.74533462    -0.12400
C188        C  0.90889175  0.58665627  0.70283938    -0.27600
H189        H  0.91383680  0.65175974  0.76175273     0.16600
H190        H  0.86751983  0.60948335  0.69329978     0.17200
C191        C  0.00661773  0.68180053  0.85471314    -0.09200
C192        C  0.00374034  0.64594913  0.81764946    -0.10800
C193        C  0.92627205  0.42464148  0.73873146    -0.12400
C194        C  0.90381511  0.46096188  0.69953924    -0.27600
H195        H  0.90177912  0.38384735  0.74847075     0.16600
H196        H  0.93382772  0.49358469  0.69896310     0.17200
C197        C  0.97165895  0.49874896  0.79802674    -0.12400
C198        C  0.01069360  0.54385956  0.79748763    -0.27600
H199        H  0.92536896  0.51225538  0.79928832     0.16600
H200        H  0.05503158  0.53618645  0.81302609     0.17200
C201        C  0.99625555  0.39269627  0.80940410    -0.09200
C202        C  0.00160211  0.35470592  0.84430321    -0.10800
C203        C  0.03212234  0.52366970  0.62686095    -0.12400
C204        C  0.97239700  0.53004660  0.62441378    -0.27600
H205        H  0.05172480  0.52092492  0.58563656     0.16600
H206        H  0.95778924  0.53267611  0.58146402     0.17200
C207        C  0.03130143  0.43981439  0.72260287    -0.12400
C208        C  0.07374552  0.48167921  0.71974434    -0.27600
H209        H  0.01660603  0.42317424  0.68260853     0.16600
H210        H  0.10323877  0.48756069  0.75466419     0.17200
C211        C  0.08121811  0.59183687  0.69431245    -0.12400
C212        C  0.04706581  0.62302346  0.73006624    -0.27600
H213        H  0.11441176  0.61973830  0.67349780     0.16600
H214        H  0.05804001  0.67062730  0.73111653     0.17200
C215        C  0.17743414  0.51058109  0.61640305    -0.09200
C216        C  0.13549322  0.51567581  0.64701494    -0.10800
C217        C  0.50663902  0.84091607  0.60793744    -0.09200
C218        C  0.50516869  0.87871873  0.64346961    -0.10800
C219        C  0.56061223  0.94766862  0.70008907    -0.12400
C220        C  0.57082875  0.95765090  0.75382592    -0.27600
H221        H  0.59636190  0.92342926  0.67991712     0.16600
H222        H  0.59274205  0.92046634  0.77421218     0.17200
C223        C  0.64257211  0.00990718  0.81001966    -0.09200
C224        C  0.68140655  0.00759489  0.84428072    -0.10800
C225        C  0.45726846  0.91321047  0.72707988    -0.12400
C226        C  0.44314756  0.94399079  0.77349456    -0.27600
H227        H  0.44553207  0.86585151  0.72887555     0.16600
H228        H  0.42507683  0.91594890  0.80646689     0.17200
C229        C  0.48869498  0.03497112  0.82384343    -0.12400
C230        C  0.54608323  0.04886107  0.81259973    -0.27600
H231        H  0.47283920  0.05553560  0.86187582     0.16600
H232        H  0.56567732  0.08159009  0.84075682     0.17200
C233        C  0.38409347  0.01832546  0.81571800    -0.09200
C234        C  0.34239810  0.02176095  0.84692192    -0.10800
C235        C  0.48948796  0.03395271  0.62914653    -0.12400
C236        C  0.47181539  0.97746871  0.64094504    -0.27600
H237        H  0.47032512  0.05065947  0.59085599     0.16600
H238        H  0.43798700  0.95962279  0.61307718     0.17200
C239        C  0.58187034  0.07497322  0.67975155    -0.12400
C240        C  0.61112776  0.05941801  0.72644644    -0.27600
H241        H  0.61098242  0.09140103  0.64691426     0.16600
H242        H  0.65873633  0.06865304  0.72481675     0.17200
C243        C  0.43492506  0.04971021  0.73312594    -0.12400
C244        C  0.47734942  0.08975601  0.71947917    -0.27600
H245        H  0.39017938  0.06565899  0.72508362     0.16600
H246        H  0.46428967  0.13580255  0.72718278     0.17200
C247        C  0.51184085  0.13793037  0.63655946    -0.09200
C248        C  0.50978935  0.17896977  0.60433695    -0.10800
loop_ 
_geom_bond_atom_site_label_1 
_geom_bond_atom_site_label_2 
_geom_bond_distance 
_geom_bond_site_symmetry_2 
_ccdc_geom_bond_type 
C1          C235   1.535       .  S
C1          C239   1.528       .  S
C1          C244   1.520       .  S
C1          C247   1.484       .  S
C2          C226   1.530   1_545  S
C2          C229   1.536       .  S
C2          C243   1.520       .  S
C2          C233   1.486       .  S
C3          C220   1.518   1_545  S
C3          C230   1.521       .  S
C3          C240   1.533       .  S
C3          C223   1.486       .  S
C4          C219   1.518       .  S
C4          C225   1.532       .  S
C4          C236   1.519       .  S
C4          C218   1.485       .  S
C5          C203   1.535       .  S
C5          C208   1.511       .  S
C5          C211   1.528       .  S
C5          C216   1.479       .  S
C6          C193   1.518       .  S
C6          C197   1.538       .  S
C6          C207   1.540   1_655  S
C6          C201   1.467       .  S
C7          C187   1.531       .  S
C7          C198   1.509   1_655  S
C7          C212   1.526   1_655  S
C7          C192   1.478   1_655  S
C8          C188   1.609       .  S
C8          C194   1.648       .  S
C8          C204   1.612       .  S
C8          C185   1.501       .  S
In9          O11   2.251       .  S
In9          O12   2.248       .  S
In9          O20   2.254       .  S
In9          O14   2.253       .  S
In9          O16   2.255       .  S
In9          O17   2.249       .  S
In9          O18   2.238       .  S
In9          O21   2.256       .  S
C10          O16   1.260       .  A
C10          O18   1.259       .  A
C10          C23   1.462       .  S
O11          C19   1.259       .  A
O12          C19   1.260       .  A
C13          O20   1.259       .  A
C13          O14   1.259       .  A
C13         C184   1.438       .  S
C15          O17   1.259       .  A
C15          O21   1.260       .  A
C15          C36   1.466       .  S
C19         C217   1.436       .  S
In22         O24   2.245       .  S
In22         O25   2.250       .  S
In22         O33   2.232       .  S
In22         O27   2.234       .  S
In22         O29   2.233       .  S
In22         O30   2.250       .  S
In22         O31   2.255       .  S
In22         O34   2.234       .  S
C23          O29   1.258       .  A
C23          O31   1.261       .  A
O24          C32   1.258       .  A
O25          C32   1.258       .  A
C26          O33   1.259       .  A
C26          O27   1.259       .  A
C26         C186   1.426       .  S
C28          O30   1.261       .  A
C28          O34   1.258       .  A
C28          C49   1.461       .  S
C32         C181   1.433       .  S
In35         O37   2.240       .  S
In35         O38   2.251       .  S
In35         O46   2.252       .  S
In35         O40   2.250       .  S
In35         O42   2.254       .  S
In35         O43   2.246       .  S
In35         O44   2.247       .  S
In35         O47   2.249       .  S
C36          O42   1.260       .  A
C36          O44   1.260       .  A
O37          C45   1.259       .  A
O38          C45   1.259       .  A
C39          O46   1.259       .  A
C39          O40   1.258       .  A
C39         C179   1.436       .  S
C41          O43   1.260       .  A
C41          O47   1.260       .  A
C41          C54   1.464       .  S
C45         C215   1.433       .  S
In48         O50   2.247       .  S
In48         O51   2.250       .  S
In48         O59   2.246       .  S
In48         O53   2.246       .  S
In48         O55   2.239       .  S
In48         O56   2.250       .  S
In48         O57   2.248       .  S
In48         O60   2.248       .  S
C49          O55   1.260       .  A
C49          O57   1.260       .  A
O50          C58   1.259       .  A
O51          C58   1.260       .  A
C52          O59   1.259       .  A
C52          O53   1.259       .  A
C52         C248   1.433       .  S
C54          O56   1.259       .  A
C54          O60   1.259       .  A
C58         C177   1.435       .  S
C61         C164   1.493       .  S
C61         C167   1.553       .  S
C61         C171   1.535   1_545  S
C61         C176   1.478       .  S
C62         C155   1.491       .  S
C62         C159   1.535       .  S
C62         C172   1.553       .  S
C62         C183   1.480       .  S
C63         C149   1.535       .  S
C63         C160   1.554   1_545  S
C63         C163   1.493       .  S
C63         C153   1.480       .  S
C64         C150   1.552       .  S
C64         C156   1.491       .  S
C64         C168   1.533       .  S
C64         C178   1.478       .  S
C65         C135   1.496       .  S
C65         C140   1.528       .  S
C65         C144   1.561   1_455  S
C65         C147   1.478       .  S
C66         C127   1.498       .  S
C66         C131   1.528       .  S
C66         C143   1.561       .  S
C66         C182   1.477       .  S
C67         C122   1.562       .  S
C67         C132   1.528   1_455  S
C67         C136   1.497   1_455  S
C67         C126   1.478       .  S
C68         C121   1.563       .  S
C68         C128   1.496       .  S
C68         C139   1.529       .  S
C68         C180   1.479       .  S
In69         O71   2.255   1_545  S
In69         O72   2.247       .  S
In69         O80   2.254   1_556  S
In69         O74   2.251   1_546  S
In69         O76   2.253   1_546  S
In69         O77   2.252       .  S
In69         O78   2.246   1_545  S
In69         O81   2.257   1_556  S
C70          O76   1.260   1_556  A
C70          O78   1.260       .  A
C70          C83   1.465       .  S
O71          C79   1.259   1_565  A
O72          C79   1.259       .  A
C73          O80   1.259       .  A
C73          O74   1.258   1_545  A
C73         C154   1.437       .  S
C75          O77   1.260       .  A
C75          O81   1.260   1_556  A
C75          C96   1.468       .  S
C79         C224   1.437       .  S
In82         O84   2.242   1_456  S
In82         O85   2.251   1_556  S
In82         O93   2.246       .  S
In82         O87   2.242   1_455  S
In82         O89   2.244   1_455  S
In82         O90   2.251   1_556  S
In82         O91   2.253   1_456  S
In82         O94   2.241       .  S
C83          O89   1.259       .  A
C83          O91   1.261   1_556  A
O84          C92   1.259   1_655  A
O85          C92   1.259       .  A
C86          O93   1.259       .  A
C86          O87   1.259   1_455  A
C86         C191   1.433       .  S
C88          O90   1.261   1_556  A
C88          O94   1.259       .  A
C88         C109   1.464       .  S
C92         C125   1.434       .  S
In95         O97   2.242   1_455  S
In95         O98   2.249       .  S
In95        O106   2.247   1_556  S
In95        O100   2.252   1_456  S
In95        O102   2.256   1_456  S
In95        O103   2.247       .  S
In95        O104   2.251   1_455  S
In95        O107   2.249   1_556  S
C96         O102   1.260   1_556  A
C96         O104   1.260       .  A
O97         C105   1.259   1_655  A
O98         C105   1.259       .  A
C99         O106   1.258       .  A
C99         O100   1.259   1_455  A
C99         C148   1.435       .  S
C101        O103   1.260       .  A
C101        O107   1.260   1_556  A
C101        C114   1.465       .  S
C105        C202   1.434       .  S
In108       O110   2.249   1_546  S
In108       O111   2.249   1_556  S
In108       O119   2.251       .  S
In108       O113   2.245   1_545  S
In108       O115   2.242   1_545  S
In108       O116   2.252   1_556  S
In108       O117   2.252   1_546  S
In108       O120   2.250       .  S
C109        O115   1.260       .  A
C109        O117   1.260   1_556  A
O110        C118   1.259   1_565  A
O111        C118   1.259       .  A
C112        O119   1.259       .  A
C112        O113   1.258   1_545  A
C112        C234   1.435       .  S
C114        O116   1.260   1_556  A
C114        O120   1.259       .  A
C118        C175   1.435       .  S
C121        C122   1.382       .  D
C121        H123   1.091       .  S
C122        H124   1.091       .  S
C125        C126   1.207       .  T
C127        C128   1.315   1_655  D
C127        H129   1.087   1_655  S
C128        H130   1.087       .  S
C131        C132   1.357       .  D
C131        H133   1.090       .  S
C132        H134   1.090       .  S
C135        C136   1.314   1_455  D
C135        H137   1.087       .  S
C136        H138   1.087       .  S
C139        C140   1.358       .  D
C139        H141   1.090       .  S
C140        H142   1.090       .  S
C143        C144   1.379       .  D
C143        H145   1.091       .  S
C144        H146   1.091       .  S
C147        C148   1.207       .  T
C149        C150   1.372       .  D
C149        H151   1.090       .  S
C150        H152   1.090       .  S
C153        C154   1.208       .  T
C155        C156   1.328   1_565  D
C155        H157   1.086       .  S
C156        H158   1.086       .  S
C159        C160   1.372       .  D
C159        H161   1.090       .  S
C160        H162   1.090       .  S
C163        C164   1.329       .  D
C163        H165   1.086       .  S
C164        H166   1.086   1_545  S
C167        C168   1.371       .  D
C167        H169   1.090       .  S
C168        H170   1.090       .  S
C171        C172   1.372       .  D
C171        H173   1.090       .  S
C172        H174   1.090       .  S
C175        C176   1.207       .  T
C177        C178   1.207       .  T
C179        C180   1.207       .  T
C181        C182   1.206       .  T
C183        C184   1.208       .  T
C185        C186   1.202       .  T
C187        C188   1.356       .  D
C187        H189   1.092       .  S
C188        H190   1.092       .  S
C191        C192   1.206       .  T
C193        C194   1.352       .  D
C193        H195   1.087       .  S
C194        H196   0.989       .  S
C197        C198   1.331   1_655  D
C197        H199   1.089       .  S
C198        H200   1.083       .  S
C201        C202   1.206   1_655  T
C203        C204   1.355   1_455  D
C203        H205   1.093       .  S
C204        H206   1.094       .  S
C207        C208   1.332       .  D
C207        H209   1.089       .  S
C208        H210   1.084       .  S
C211        C212   1.356       .  D
C211        H213   1.091       .  S
C212        H214   1.091       .  S
C215        C216   1.206       .  T
C217        C218   1.208       .  T
C219        C220   1.341       .  D
C219        H221   1.090       .  S
C220        H222   1.090       .  S
C223        C224   1.208       .  T
C225        C226   1.358       .  D
C225        H227   1.090       .  S
C226        H228   1.091       .  S
C229        C230   1.353       .  D
C229        H231   1.091       .  S
C230        H232   1.091       .  S
C233        C234   1.207       .  T
C235        C236   1.351   1_545  D
C235        H237   1.091       .  S
C236        H238   1.091       .  S
C239        C240   1.357       .  D
C239        H241   1.091       .  S
C240        H242   1.090       .  S
C243        C244   1.343       .  D
C243        H245   1.090       .  S
C244        H246   1.090       .  S
C247        C248   1.206       .  T
