geometry optimzed in LAMMPS
_audit_creation_date              2020-11-30 
_audit_creation_method            'lammps2cif' 
_symmetry_space_group_name_H-M    'P1' 
_symmetry_Int_Tables_number       1 
_symmetry_cell_setting            triclinic 
loop_ 
_symmetry_equiv_pos_as_xyz 
  x,y,z 
_cell_length_a                    21.56426044 
_cell_length_b                    25.619259181644264 
_cell_length_c                    21.478091186374023 
_cell_angle_alpha                 93.30814599935998 
_cell_angle_beta                  78.97157415226839 
_cell_angle_gamma                 87.88361714317816 
loop_ 
_atom_site_label 
_atom_site_type_symbol 
_atom_site_fract_x 
_atom_site_fract_y 
_atom_site_fract_z 
_atom_site_charge 
O1          O  0.94566027  0.38029254  0.99177635    -0.80300
O2          O  0.95791719  0.61370105  0.97517662    -0.65000
O3          O  0.00413509  0.46802356  0.94959882    -1.11600
C4          C  0.03670451  0.49492283  0.16151030     1.06600
O5          O  0.05143091  0.62088003  0.00148286    -0.78200
O6          O  0.12927058  0.55096424  0.04275521    -0.65800
Ni7        Ni  0.95137169  0.41971834  0.91804882     1.34900
C8          C  0.15059212  0.50688648  0.01585808     0.85300
O9          O  0.96456475  0.54262996  0.87418013    -0.78800
O10         O  0.95712971  0.45746344  0.84293369    -0.89000
C11         C  0.00267672  0.64186084  0.98603950     0.84900
O12         O  0.86756822  0.45008119  0.95060220    -0.67200
O13         O  0.04095029  0.54329999  0.15042521    -0.86500
C14         C  0.84634051  0.49376502  0.97888753     0.85700
C15         C  0.96196044  0.50578697  0.83200844     1.07300
H16         H  0.95301810  0.53525634  0.07408779     0.39100
O17         O  0.99299042  0.53263814  0.04442854    -1.09200
O18         O  0.11336571  0.47056774  0.00505923    -0.65800
Ni19       Ni  0.02092793  0.46100034  0.03337513     1.26300
O20         O  0.88375299  0.52985002  0.98981419    -0.66100
O21         O  0.03268255  0.45805067  0.11983737    -0.78400
C22         C  0.99467217  0.35853639  0.00579276     0.85100
O23         O  0.03864277  0.38666189  0.01902878    -0.65500
Ni24       Ni  0.04574992  0.58122020  0.07537421     1.27400
Ni25       Ni  0.97600956  0.53955829  0.96081367     1.26100
H26         H  0.04419833  0.46550763  0.92007221     0.39600
O27         O  0.04046473  0.61406285  0.43529673    -0.80300
O28         O  0.94896538  0.39315623  0.46478442    -0.65000
O29         O  0.97053819  0.54022380  0.49876572    -1.11600
C30         C  0.16274728  0.47289264  0.54006478     1.06600
O31         O  0.96956234  0.38082586  0.55865903    -0.78200
O32         O  0.01926422  0.44985172  0.63138239    -0.65800
Ni33       Ni  0.95762185  0.59032755  0.44005940     1.34900
C34         C  0.00894088  0.49854901  0.64455998     0.85300
O35         O  0.87463345  0.48273763  0.46652691    -0.78800
O36         O  0.87402625  0.56866887  0.44506109    -0.89000
C37         C  0.95418403  0.36232447  0.50813164     0.84900
O38         O  0.98640342  0.54914183  0.36286535    -0.67200
O39         O  0.13469511  0.43099475  0.55344426    -0.86500
C40         C  0.99900195  0.50076793  0.34931436     0.85700
C41         C  0.84733470  0.52613238  0.45809305     1.07300
H42         H  0.06948220  0.44703177  0.45638038     0.39100
O43         O  0.04100136  0.45827824  0.49569184    -1.09200
O44         O  0.02022118  0.53279967  0.60412457    -0.65800
Ni45       Ni  0.05408584  0.53100696  0.51435984     1.26300
O46         O  0.99183281  0.46647108  0.38995845    -0.66100
O47         O  0.13715745  0.51601491  0.52818211    -0.78400
C48         C  0.05226427  0.63604769  0.48558452     0.85100
O49         O  0.06334794  0.60651452  0.52841612    -0.65500
Ni50       Ni  0.05175906  0.40807782  0.55533244     1.27400
Ni51       Ni  0.95801437  0.46790098  0.47972997     1.26100
H52         H  0.94218243  0.55104019  0.53836331     0.39600
O53         O  0.44780103  0.38035582  0.99685673    -0.80300
O54         O  0.45646318  0.61301998  0.97491055    -0.65000
O55         O  0.50726248  0.46791245  0.95611196    -1.11600
C56         C  0.52680480  0.49989104  0.17394836     1.06600
O57         O  0.54525059  0.62335910  0.00954773    -0.78200
O58         O  0.62402506  0.55527948  0.05261170    -0.65800
Ni59       Ni  0.45871967  0.41785692  0.92110684     1.34900
C60         C  0.64678188  0.51084221  0.02762708     0.85300
O61         O  0.47197826  0.53952867  0.87344925    -0.78800
O62         O  0.46935887  0.45355155  0.84361913    -0.89000
C63         C  0.49628533  0.64311026  0.99311272     0.84900
O64         O  0.37354742  0.44723155  0.94703280    -0.67200
O65         O  0.53280383  0.54769667  0.16066376    -0.86500
C66         C  0.35002068  0.49073521  0.97405782     0.85700
C67         C  0.47322685  0.50165328  0.83108678     1.07300
H68         H  0.44800307  0.53719794  0.07721278     0.39100
O69         O  0.48929680  0.53447669  0.04982462    -1.09200
O70         O  0.61070622  0.47326438  0.01855720    -0.65800
Ni71       Ni  0.51813582  0.46305831  0.04280099     1.26300
O72         O  0.38541837  0.52765911  0.98714092    -0.66100
O73         O  0.52403076  0.46227480  0.13236583    -0.78400
C74         C  0.49461869  0.35986613  0.01632318     0.85100
O75         O  0.53719876  0.38868355  0.03138331    -0.65500
Ni76       Ni  0.53913648  0.58431257  0.08383606     1.27400
Ni77       Ni  0.47771703  0.53902812  0.96308746     1.26100
H78         H  0.54874227  0.46559424  0.92909849     0.39600
O79         O  0.43831381  0.62863020  0.47760214    -0.80300
O80         O  0.49511035  0.38141917  0.47559664    -0.65000
O81         O  0.45282882  0.52701602  0.51778803    -1.11600
C82         C  0.66229581  0.53375636  0.52100858     1.06600
O83         O  0.57246741  0.37140066  0.53020352    -0.78200
O84         O  0.53799060  0.45558503  0.61699266    -0.65800
Ni85       Ni  0.40596203  0.56104333  0.46288091     1.34900
C86         C  0.52113439  0.50226920  0.63859703     0.85300
O87         O  0.38783820  0.43874995  0.50878078    -0.78800
O88         O  0.36598125  0.49817473  0.44518017    -0.89000
C89         C  0.53345822  0.35283539  0.49826904     0.84900
O90         O  0.47116428  0.54474660  0.38974360    -0.67200
O91         O  0.64431249  0.50194523  0.56268022    -0.86500
C92         C  0.48772198  0.49818287  0.36735562     0.85700
C93         C  0.34866630  0.46564945  0.48614497     1.07300
H94         H  0.58196931  0.46689752  0.44538815     0.39100
O95         O  0.55868065  0.47216825  0.48859374    -1.09200
O96         O  0.52880262  0.54102470  0.60315655    -0.65800
Ni97       Ni  0.53783065  0.54519047  0.51045131     1.26300
O98         O  0.48211964  0.45914255  0.40262262    -0.66100
O99         O  0.62364572  0.56017964  0.49726288    -0.78400
C100        C  0.47948126  0.64637864  0.50733224     0.85100
O101        O  0.51770920  0.61744527  0.52934768    -0.65500
Ni102      Ni  0.60447224  0.43892900  0.54501904     1.27400
Ni103      Ni  0.47382284  0.45391121  0.49535134     1.26100
H104        H  0.42989261  0.53194886  0.56114849     0.39600
N105        N  0.99862527  0.94523872  0.06585848    -0.36000
N106        N  0.00774950  0.05713218  0.06688718    -0.56600
N107        N  0.00186838  0.05418870  0.92986120    -0.38400
N108        N  0.00266210  0.94197698  0.92696982    -0.56600
C109        C  0.01564750  0.95478526  0.12303090     0.27500
C110        C  0.01099677  0.89363477  0.04896066     0.27500
C111        C  0.01583161  0.10448976  0.94092376     0.27500
C112        C  0.01635960  0.04299293  0.86596912     0.27500
C113        C  0.00077786  0.05166815  0.13023923     0.36200
C114        C  0.99897332  0.10886066  0.05983636     0.36200
C115        C  0.99146080  0.89141382  0.93780553     0.36200
C116        C  0.99794003  0.94779598  0.86572499     0.36200
C117        C  0.03923512  0.90860183  0.14218086    -0.21300
C118        C  0.03542635  0.86994714  0.09607972    -0.21300
C119        C  0.03844578  0.12584464  0.88355981    -0.21300
C120        C  0.03949711  0.08693348  0.83643812    -0.21300
C121        C  0.98792542  0.10020152  0.16324586    -0.22400
C122        C  0.98655708  0.13627813  0.11879535    -0.22400
C123        C  0.97995179  0.86505061  0.88329312    -0.22400
C124        C  0.98449473  0.90055499  0.83770919    -0.22400
C125        C  0.00942203  0.00395267  0.15851921    -0.17700
C126        C  0.99869471  0.86688078  0.99336006    -0.17700
C127        C  0.00861357  0.99437274  0.83371023    -0.17700
C128        C  0.00655220  0.13249590  0.00105349    -0.17700
H129        H  0.05848556  0.90325249  0.18428238     0.15200
H130        H  0.05008874  0.82916391  0.09677428     0.15200
H131        H  0.05368943  0.16521135  0.87643909     0.15200
H132        H  0.05644598  0.09054359  0.78625336     0.15200
H133        H  0.98045527  0.10902542  0.21404561     0.13500
H134        H  0.97822047  0.17810414  0.12884534     0.13500
H135        H  0.97131575  0.82398161  0.87626367     0.13500
H136        H  0.97966709  0.89185368  0.78923351     0.13500
H137        H  0.97426430  0.97103168  0.04237708     0.26700
H138        H  0.97818500  0.03091946  0.96384448     0.26700
N139        N  0.00877094  0.94837456  0.56773735    -0.36000
N140        N  0.98303226  0.06247424  0.56478825    -0.56600
N141        N  0.98880075  0.05107683  0.42921521    -0.36000
N142        N  0.00547338  0.93660928  0.43391778    -0.56600
C143        C  0.98582862  0.96355624  0.62957675     0.27500
C144        C  0.00013826  0.89632361  0.55999140     0.27500
C145        C  0.96391008  0.10087908  0.44287689     0.27500
C146        C  0.97391641  0.03357013  0.37338193     0.27500
C147        C  0.99687051  0.05930321  0.62342689     0.36200
C148        C  0.98846878  0.11323104  0.55050164     0.36200
C149        C  0.02722927  0.88770461  0.44278750     0.36200
C150        C  0.01508878  0.94102009  0.37024365     0.36200
C151        C  0.96089409  0.92098368  0.66092398    -0.21300
C152        C  0.97079459  0.87836275  0.61731330    -0.21300
C153        C  0.93252200  0.11494937  0.39530966    -0.21300
C154        C  0.93871604  0.07254601  0.35162642    -0.21300
C155        C  0.01186219  0.10801404  0.64613212    -0.22400
C156        C  0.00725332  0.14197194  0.59978486    -0.22400
C157        C  0.05163939  0.86145015  0.38455793    -0.22400
C158        C  0.04348715  0.89496470  0.33878252    -0.22400
C159        C  0.99062500  0.01409766  0.65871995    -0.17700
C160        C  0.01910243  0.86491298  0.50242821    -0.17700
C161        C  0.99413361  0.98438011  0.34013950    -0.17700
C162        C  0.97132328  0.13430839  0.49594726    -0.17700
H163        H  0.93674766  0.92098700  0.70981461     0.15200
H164        H  0.95672018  0.83897041  0.62639835     0.15200
H165        H  0.90741408  0.15181867  0.39244497     0.15200
H166        H  0.91916621  0.07061359  0.30882085     0.15200
H167        H  0.02428984  0.11825294  0.69155947     0.13500
H168        H  0.01596256  0.18327292  0.60265383     0.13500
H169        H  0.07200740  0.82185372  0.37578475     0.13500
H170        H  0.05653222  0.88606640  0.28813173     0.13500
H171        H  0.03452022  0.97120774  0.53427773     0.26700
H172        H  0.01970225  0.03194696  0.45315451     0.26700
N173        N  0.46785130  0.94542655  0.94058716    -0.36000
N174        N  0.48991435  0.05651481  0.93917336    -0.56600
N175        N  0.48914750  0.05917196  0.07696809    -0.36000
N176        N  0.47758174  0.94734067  0.07617503    -0.56600
C177        C  0.47926504  0.95148673  0.87709200     0.27500
C178        C  0.47622489  0.89367645  0.94845439     0.27500
C179        C  0.50599321  0.10837567  0.06436611     0.27500
C180        C  0.49798489  0.05110390  0.13655284     0.27500
C181        C  0.47513095  0.04882344  0.88081480     0.36200
C182        C  0.48581339  0.10889453  0.95325800     0.36200
C183        C  0.46102530  0.89752541  0.06705505     0.36200
C184        C  0.46936323  0.95782426  0.13984974     0.36200
C185        C  0.49355294  0.90286528  0.84464598    -0.21300
C186        C  0.49240816  0.86665923  0.88937344    -0.21300
C187        C  0.52509964  0.13205735  0.11682426    -0.21300
C188        C  0.52010648  0.09604788  0.16213699    -0.21300
C189        C  0.46174077  0.09652913  0.85792774    -0.22400
C190        C  0.46943739  0.13450060  0.90315900    -0.22400
C191        C  0.44231871  0.87617062  0.12514721    -0.22400
C192        C  0.44694307  0.91451763  0.17119914    -0.22400
C193        C  0.47561238  0.99930509  0.84734437    -0.17700
C194        C  0.46740585  0.86957640  0.00716500    -0.17700
C195        C  0.48391912  0.00540885  0.16975334    -0.17700
C196        C  0.49857136  0.13432632  0.00962195    -0.17700
H197        H  0.50399182  0.89393049  0.79396578     0.15200
H198        H  0.50226117  0.82501023  0.87913114     0.15200
H199        H  0.53970513  0.17167328  0.12280092     0.15200
H200        H  0.53037991  0.10295517  0.20907804     0.15200
H201        H  0.44683219  0.10348013  0.81381512     0.13500
H202        H  0.46284159  0.17622379  0.89966933     0.13500
H203        H  0.42672579  0.83705274  0.13343995     0.13500
H204        H  0.43460521  0.91094405  0.22188386     0.13500
H205        H  0.44955726  0.97404781  0.97623367     0.26700
H206        H  0.46599924  0.03514495  0.04938623     0.26700
N207        N  0.51280847  0.04752188  0.42793449    -0.36000
N208        N  0.51004183  0.93694088  0.43595326    -0.56600
N209        N  0.49969814  0.95092280  0.57547908    -0.36000
N210        N  0.51016922  0.06081437  0.56592137    -0.56600
C211        C  0.53046840  0.03117759  0.36571563     0.27500
C212        C  0.53200135  0.09677145  0.43428929     0.27500
C213        C  0.51357518  0.89900175  0.56402700     0.27500
C214        C  0.51401739  0.96485366  0.63278664     0.27500
C215        C  0.50439530  0.93867971  0.37439389     0.36200
C216        C  0.49645798  0.88803448  0.45242329     0.36200
C217        C  0.50292840  0.11115206  0.55220827     0.36200
C218        C  0.49750720  0.06038551  0.63010838     0.36200
C219        C  0.56185349  0.07022935  0.33245640    -0.21300
C220        C  0.56237072  0.11191234  0.37566239    -0.21300
C221        C  0.53658850  0.87958538  0.61459088    -0.21300
C222        C  0.53796392  0.92137390  0.65734564    -0.21300
C223        C  0.48823100  0.89049815  0.35142837    -0.22400
C224        C  0.48321678  0.85838032  0.40081400    -0.22400
C225        C  0.48547258  0.14286211  0.60787507    -0.22400
C226        C  0.48218155  0.11067412  0.65722198    -0.22400
C227        C  0.51667275  0.98260255  0.33811675    -0.17700
C228        C  0.51882276  0.12955281  0.49072014    -0.17700
C229        C  0.50420147  0.01556006  0.66401086    -0.17700
C230        C  0.50183722  0.86822717  0.51125639    -0.17700
H231        H  0.58298277  0.06849946  0.28248030     0.15200
H232        H  0.58280604  0.14911875  0.36513793     0.15200
H233        H  0.55166375  0.83961481  0.61989679     0.15200
H234        H  0.55596896  0.92012190  0.70081001     0.15200
H235        H  0.48175494  0.87919362  0.30393583     0.13500
H236        H  0.47249633  0.81746884  0.39837568     0.13500
H237        H  0.47764457  0.18500239  0.61250244     0.13500
H238        H  0.47091299  0.12313660  0.70715486     0.13500
H239        H  0.48289941  0.02883565  0.46272509     0.26700
H240        H  0.47526356  0.97389278  0.54882006     0.26700
C241        C  0.50654090  0.02293941  0.73339349    -0.15900
C242        C  0.47141332  0.99554481  0.77805159    -0.31000
H243        H  0.53730997  0.05206694  0.74765834     0.13100
H244        H  0.44140744  0.96625885  0.76259051     0.13700
C245        C  0.48327391  0.00939018  0.23969696    -0.15900
C246        C  0.51747320  0.97654495  0.26826202    -0.31000
H247        H  0.45702684  0.04259580  0.26773101     0.13100
H248        H  0.54402869  0.94328513  0.24071713     0.13700
C249        C  0.98498857  0.02126050  0.72955464    -0.15900
C250        C  0.01651480  0.98983935  0.76252258    -0.31000
H251        H  0.95545568  0.05404915  0.75475132     0.13100
H252        H  0.04619152  0.95726937  0.73695097     0.13700
C253        C  0.01698697  0.00765146  0.22692171    -0.15900
C254        C  0.98921283  0.97633938  0.27146867    -0.31000
H255        H  0.04314398  0.03983726  0.24227439     0.13100
H256        H  0.96281934  0.94373920  0.25775771     0.13700
C257        C  0.58356320  0.26357425  0.49851462    -0.12800
C258        C  0.53209242  0.29546416  0.48910542     0.09400
C259        C  0.47810671  0.27193993  0.47499514    -0.12800
C260        C  0.47454940  0.21757642  0.47345641    -0.12800
C261        C  0.52500944  0.18630808  0.48558801     0.09400
C262        C  0.57998887  0.20934561  0.49678068    -0.12800
H263        H  0.62601352  0.28061557  0.50878767     0.13300
H264        H  0.43778423  0.29558809  0.46762730     0.13300
H265        H  0.43183673  0.19995610  0.46479452     0.13300
H266        H  0.61928045  0.18536467  0.50595176     0.13300
C267        C  0.43035156  0.73671481  0.52508850    -0.12800
C268        C  0.48467739  0.70311765  0.51441085     0.09400
C269        C  0.54469412  0.72410681  0.50671228    -0.12800
C270        C  0.55041854  0.77811731  0.50715431    -0.12800
C271        C  0.49612534  0.81154760  0.51706248     0.09400
C272        C  0.43606955  0.79077386  0.52710470    -0.12800
H273        H  0.38372385  0.72111059  0.53114899     0.13300
H274        H  0.58713620  0.69866085  0.49778054     0.13300
H275        H  0.59698983  0.79388387  0.49859264     0.13300
H276        H  0.39390713  0.81644325  0.53422912     0.13300
C277        C  0.44055265  0.27604233  0.02767075    -0.12800
C278        C  0.49717368  0.30255367  0.02100914     0.09400
C279        C  0.55495478  0.27334197  0.01252610    -0.12800
C280        C  0.55590237  0.21843427  0.00842484    -0.12800
C281        C  0.49905721  0.19236564  0.01384770     0.09400
C282        C  0.44148544  0.22157656  0.02470266    -0.12800
H283        H  0.39530265  0.29753245  0.03440565     0.13300
H284        H  0.59921337  0.29283908  0.00667091     0.13300
H285        H  0.60075048  0.19624529  0.00059261     0.13300
H286        H  0.39726350  0.20203637  0.02971985     0.13300
C287        C  0.52988423  0.73202116  0.02171959    -0.12800
C288        C  0.48724091  0.70095559  0.99599170     0.09400
C289        C  0.43615988  0.72582771  0.97552152    -0.12800
C290        C  0.42850200  0.78066479  0.98021655    -0.12800
C291        C  0.47180838  0.81130570  0.00539636     0.09400
C292        C  0.52228935  0.78642577  0.02624791    -0.12800
H293        H  0.56950438  0.71431323  0.03845287     0.13300
H294        H  0.40236386  0.70299764  0.95585593     0.13300
H295        H  0.38931243  0.79927905  0.96366023     0.13300
H296        H  0.55642431  0.80931825  0.04535517     0.13300
C297        C  0.48269686  0.51207132  0.76421780    -0.12700
C298        C  0.49705690  0.51139764  0.70653271    -0.14300
C299        C  0.51998858  0.48952093  0.24086968    -0.12700
C300        C  0.50862888  0.48962191  0.29872577    -0.14300
C301        C  0.98766048  0.22073840  0.44309217    -0.12800
C302        C  0.95949870  0.19295301  0.49517646     0.09400
C303        C  0.92232560  0.22194478  0.54790090    -0.12800
C304        C  0.91793963  0.27692650  0.55073316    -0.12800
C305        C  0.94798385  0.30462117  0.49968354     0.09400
C306        C  0.98129561  0.27579058  0.44501260    -0.12800
H307        H  0.01668125  0.19995581  0.40173219     0.13300
H308        H  0.89866738  0.20205672  0.58827119     0.13300
H309        H  0.89230079  0.29798837  0.59368395     0.13300
H310        H  0.00597077  0.29598731  0.40539355     0.13300
C311        C  0.07593653  0.72572918  0.53288967    -0.12800
C312        C  0.04305344  0.69452232  0.49521337     0.09400
C313        C  0.99943705  0.71985820  0.46437016    -0.12800
C314        C  0.99016667  0.77440826  0.46912431    -0.12800
C315        C  0.02519762  0.80602661  0.50373306     0.09400
C316        C  0.06737937  0.78099171  0.53674379    -0.12800
H317        H  0.10943358  0.70760841  0.55769110     0.13300
H318        H  0.97213539  0.69726785  0.43604225     0.13300
H319        H  0.95643593  0.79216301  0.44426008     0.13300
H320        H  0.09477656  0.80427028  0.56423999     0.13300
C321        C  0.78127886  0.52963380  0.47173474    -0.12700
C322        C  0.72673705  0.53480110  0.49478984    -0.14300
C323        C  0.22877716  0.46876712  0.53095533    -0.12700
C324        C  0.28404861  0.46342468  0.51133109    -0.14300
C325        C  0.05216469  0.27361141  0.01906746    -0.12800
C326        C  0.99869065  0.30070863  0.00610470     0.09400
C327        C  0.94858743  0.27183573  0.99094901    -0.12800
C328        C  0.95167761  0.21733493  0.98898972    -0.12800
C329        C  0.00475875  0.19047525  0.00227754     0.09400
C330        C  0.05509850  0.21877931  0.01726435    -0.12800
H331        H  0.09159546  0.29470375  0.03039781     0.13300
H332        H  0.90678095  0.29132814  0.98032221     0.13300
H333        H  0.91249448  0.19599560  0.97737648     0.13300
H334        H  0.09647662  0.19834687  0.02751452     0.13300
C335        C  0.05654051  0.72511423  0.96650706    -0.12800
C336        C  0.99987417  0.69905225  0.98161661     0.09400
C337        C  0.94235943  0.72854249  0.99926562    -0.12800
C338        C  0.94195771  0.78331478  0.00406802    -0.12800
C339        C  0.99892006  0.80898230  0.99054499     0.09400
C340        C  0.05599684  0.77963363  0.97042962    -0.12800
H341        H  0.10149220  0.70320868  0.95259344     0.13300
H342        H  0.89822154  0.70929453  0.01166436     0.13300
H343        H  0.89743261  0.80573393  0.01854969     0.13300
H344        H  0.10010973  0.79903791  0.95861449     0.13300
C345        C  0.71727438  0.50396243  0.01011834    -0.12700
C346        C  0.77602735  0.50140503  0.99782481    -0.14300
C347        C  0.27953808  0.49715027  0.98907961    -0.12700
C348        C  0.22087102  0.49916349  0.99894470    -0.14300
C349        C  0.98452278  0.51495522  0.70975704    -0.12700
C350        C  0.96943343  0.51764200  0.76680996    -0.14300
C351        C  0.03242627  0.48285542  0.22635120    -0.12700
C352        C  0.02068710  0.48485491  0.28353558    -0.14300
loop_ 
_geom_bond_atom_site_label_1 
_geom_bond_atom_site_label_2 
_geom_bond_distance 
_geom_bond_site_symmetry_2 
_ccdc_geom_bond_type 
O1           Ni7   1.914       .  S
O1           C22   1.271   1_556  A
O2          Ni25   1.920       .  S
O2           C11   1.275   1_655  A
O3           Ni7   1.894   1_455  S
O3          Ni25   1.896   1_455  S
O3          Ni19   1.919   1_556  S
O3           H26   0.967       .  S
C4           O21   1.280       .  A
C4           O13   1.279       .  A
C4          C351   1.430       .  S
O5          Ni24   1.920       .  S
O5           C11   1.271   1_554  A
O6          Ni24   1.920       .  S
O6            C8   1.267       .  A
Ni7          O10   1.915       .  S
Ni7          O12   1.926       .  S
C8           O18   1.291       .  A
C8          C348   1.492   1_554  S
O9          Ni25   1.929       .  S
O9           C15   1.280       .  A
O10          C15   1.278       .  A
C11         C336   1.474   1_455  S
O12          C14   1.268       .  A
O13         Ni24   1.918       .  S
C14          O20   1.290       .  A
C14         C346   1.495       .  S
C15         C350   1.430       .  S
H16          O17   0.966       .  S
O17         Ni25   1.917   1_554  S
O17         Ni19   1.898   1_655  S
O17         Ni24   1.893   1_655  S
O18         Ni19   1.998       .  S
Ni19         O23   1.924       .  S
Ni19         O21   1.927       .  S
O20         Ni25   1.997       .  S
C22          O23   1.276   1_655  A
C22         C326   1.481       .  S
O27         Ni33   1.894   1_455  S
O27          C48   1.263       .  A
O28         Ni51   1.946       .  S
O28          C37   1.273       .  A
O29         Ni33   1.900       .  S
O29         Ni51   1.914       .  S
O29         Ni45   1.903   1_655  S
O29          H52   0.967       .  S
C30          O47   1.277       .  A
C30          O39   1.272       .  A
C30         C323   1.399       .  S
O31         Ni50   1.919   1_655  S
O31          C37   1.266       .  A
O32         Ni50   1.900       .  S
O32          C34   1.265       .  A
Ni33         O36   1.891       .  S
Ni33         O38   1.898       .  S
C34          O44   1.267       .  A
C34         C349   1.431   1_455  S
O35         Ni51   1.901       .  S
O35          C41   1.277       .  A
O36          C41   1.272       .  A
C37         C305   1.493       .  S
O38          C40   1.264       .  A
O39         Ni50   1.897       .  S
C40          O46   1.267       .  A
C40         C352   1.431   1_655  S
C41         C321   1.397       .  S
H42          O43   0.966       .  S
O43         Ni51   1.895   1_455  S
O43         Ni45   1.926       .  S
O43         Ni50   1.905       .  S
O44         Ni45   1.924       .  S
Ni45         O49   1.964       .  S
Ni45         O47   1.900       .  S
O46         Ni51   1.924       .  S
C48          O49   1.276       .  A
C48         C312   1.501       .  S
O53         Ni59   1.917       .  S
O53          C74   1.272   1_556  A
O54         Ni77   1.924       .  S
O54          C63   1.276       .  A
O55         Ni59   1.896       .  S
O55         Ni77   1.896       .  S
O55         Ni71   1.931   1_556  S
O55          H78   0.966       .  S
C56          O73   1.287       .  A
C56          O65   1.279       .  A
C56         C299   1.457       .  S
O57         Ni76   1.918       .  S
O57          C63   1.273   1_554  A
O58         Ni76   1.930       .  S
O58          C60   1.270       .  A
Ni59         O62   1.925       .  S
Ni59         O64   1.926       .  S
C60          O70   1.289       .  A
C60         C345   1.496       .  S
O61         Ni77   1.953       .  S
O61          C67   1.287       .  A
O62          C67   1.279       .  A
C63         C288   1.484       .  S
O64          C66   1.268       .  A
O65         Ni76   1.930       .  S
C66          O72   1.289       .  A
C66         C347   1.493       .  S
C67         C297   1.453       .  S
H68          O69   0.966       .  S
O69         Ni77   1.936   1_554  S
O69         Ni71   1.899       .  S
O69         Ni76   1.901       .  S
O70         Ni71   1.995       .  S
Ni71         O75   1.926       .  S
Ni71         O73   1.953       .  S
O72         Ni77   1.995       .  S
C74          O75   1.276       .  A
C74         C278   1.477       .  S
O79         Ni85   1.922       .  S
O79         C100   1.271       .  A
O80        Ni103   1.900       .  S
O80          C89   1.268       .  A
O81         Ni85   1.919       .  S
O81        Ni103   1.922       .  S
O81         Ni97   1.887       .  S
O81         H104   0.966       .  S
C82          O99   1.255       .  A
C82          O91   1.261       .  A
C82         C322   1.398       .  S
O83        Ni102   1.918       .  S
O83          C89   1.272       .  A
O84        Ni102   1.913       .  S
O84          C86   1.272       .  A
Ni85         O88   1.908       .  S
Ni85         O90   1.912       .  S
C86          O96   1.282       .  A
C86         C298   1.454       .  S
O87        Ni103   1.880       .  S
O87          C93   1.256       .  A
O88          C93   1.261       .  A
C89         C258   1.474       .  S
O90          C92   1.272       .  A
O91        Ni102   1.909       .  S
C92          O98   1.285       .  A
C92         C300   1.458       .  S
C93         C324   1.399       .  S
H94          O95   0.966       .  S
O95        Ni103   1.886       .  S
O95         Ni97   1.918       .  S
O95        Ni102   1.919       .  S
O96         Ni97   1.973       .  S
Ni97        O101   1.888       .  S
Ni97         O99   1.875       .  S
O98        Ni103   1.978       .  S
C100        O101   1.264       .  A
C100        C268   1.463       .  S
N105        C110   1.354   1_655  A
N105        C109   1.359   1_655  A
N105        H137   1.040       .  S
N106        C113   1.356       .  A
N106        C114   1.353   1_455  A
N107        C112   1.359       .  A
N107        C111   1.352       .  A
N107        H138   1.039   1_455  S
N108        C115   1.352   1_455  A
N108        C116   1.355   1_455  A
C109        C117   1.385       .  A
C109        C125   1.422   1_565  A
C110        C126   1.416   1_454  A
C110        C118   1.386       .  A
C111        C119   1.387       .  A
C111        C128   1.416   1_556  A
C112        C127   1.421   1_545  A
C112        C120   1.386       .  A
C113        C125   1.418       .  A
C113        C121   1.387   1_455  A
C114        C128   1.416   1_655  A
C114        C122   1.387       .  A
C115        C123   1.386       .  A
C115        C126   1.412       .  A
C116        C124   1.385       .  A
C116        C127   1.416   1_655  A
C117        C118   1.375       .  A
C117        H129   1.078       .  S
C118        H130   1.082       .  S
C119        C120   1.375       .  A
C119        H131   1.082       .  S
C120        H132   1.080       .  S
C121        C122   1.370       .  A
C121        H133   1.081       .  S
C122        H134   1.082       .  S
C123        C124   1.367       .  A
C123        H135   1.082       .  S
C124        H136   1.077       .  S
C125        C253   1.507       .  S
C126        C339   1.481       .  S
C127        C250   1.503       .  S
C128        C329   1.483       .  S
N139        C144   1.358       .  A
N139        C143   1.355   1_455  A
N139        H171   1.042       .  S
N140        C147   1.355       .  A
N140        C148   1.357       .  A
N141        C146   1.356       .  A
N141        C145   1.359       .  A
N141        H172   1.041   1_655  S
N142        C149   1.358       .  A
N142        C150   1.355       .  A
C143        C151   1.386       .  A
C143        C159   1.421   1_565  A
C144        C160   1.418       .  A
C144        C152   1.384   1_455  A
C145        C153   1.386       .  A
C145        C162   1.423       .  A
C146        C161   1.423   1_545  A
C146        C154   1.388       .  A
C147        C159   1.417       .  A
C147        C155   1.385   1_655  A
C148        C162   1.423       .  A
C148        C156   1.387   1_655  A
C149        C157   1.385       .  A
C149        C160   1.421       .  A
C150        C158   1.386       .  A
C150        C161   1.419   1_455  A
C151        C152   1.380       .  A
C151        H163   1.079       .  S
C152        H164   1.082       .  S
C153        C154   1.379       .  A
C153        H165   1.082       .  S
C154        H166   1.082       .  S
C155        C156   1.374       .  A
C155        H167   1.081       .  S
C156        H168   1.082       .  S
C157        C158   1.374       .  A
C157        H169   1.082       .  S
C158        H170   1.079       .  S
C159        C249   1.503       .  S
C160        C315   1.512       .  S
C161        C254   1.502       .  S
C162        C302   1.516       .  S
N173        C178   1.356       .  A
N173        C177   1.358       .  A
N173        H205   1.038       .  S
N174        C181   1.357       .  A
N174        C182   1.354       .  A
N175        C180   1.356       .  A
N175        C179   1.353       .  A
N175        H206   1.036       .  S
N176        C183   1.351       .  A
N176        C184   1.355       .  A
C177        C185   1.386       .  A
C177        C193   1.420       .  A
C178        C194   1.419   1_556  A
C178        C186   1.387       .  A
C179        C187   1.387       .  A
C179        C196   1.416       .  A
C180        C195   1.418       .  A
C180        C188   1.387       .  A
C181        C193   1.420   1_545  A
C181        C189   1.384       .  A
C182        C196   1.420   1_556  A
C182        C190   1.387       .  A
C183        C191   1.386       .  A
C183        C194   1.416       .  A
C184        C192   1.385       .  A
C184        C195   1.419   1_565  A
C185        C186   1.371       .  A
C185        H197   1.078       .  S
C186        H198   1.082       .  S
C187        C188   1.371       .  A
C187        H199   1.082       .  S
C188        H200   1.079       .  S
C189        C190   1.372       .  A
C189        H201   1.079       .  S
C190        H202   1.082       .  S
C191        C192   1.373       .  A
C191        H203   1.082       .  S
C192        H204   1.080       .  S
C193        C242   1.506       .  S
C194        C291   1.490       .  S
C195        C245   1.497       .  S
C196        C281   1.485       .  S
N207        C212   1.350       .  A
N207        C211   1.355       .  A
N207        H239   1.041       .  S
N208        C215   1.354       .  A
N208        C216   1.349       .  A
N209        C214   1.357       .  A
N209        C213   1.351       .  A
N209        H240   1.041       .  S
N210        C217   1.349       .  A
N210        C218   1.354       .  A
C211        C219   1.384       .  A
C211        C227   1.414   1_545  A
C212        C228   1.410       .  A
C212        C220   1.387       .  A
C213        C221   1.387       .  A
C213        C230   1.411       .  A
C214        C229   1.417   1_565  A
C214        C222   1.384       .  A
C215        C227   1.410       .  A
C215        C223   1.384       .  A
C216        C230   1.412       .  A
C216        C224   1.388       .  A
C217        C225   1.387       .  A
C217        C228   1.412       .  A
C218        C226   1.384       .  A
C218        C229   1.412       .  A
C219        C220   1.376       .  A
C219        H231   1.081       .  S
C220        H232   1.082       .  S
C221        C222   1.375       .  A
C221        H233   1.082       .  S
C222        H234   1.079       .  S
C223        C224   1.370       .  A
C223        H235   1.080       .  S
C224        H236   1.082       .  S
C225        C226   1.373       .  A
C225        H237   1.082       .  S
C226        H238   1.080       .  S
C227        C246   1.496       .  S
C228        C261   1.474       .  S
C229        C241   1.502       .  S
C230        C271   1.472       .  S
C241        C242   1.351   1_545  D
C241        H243   1.086       .  S
C242        H244   1.087       .  S
C245        C246   1.347   1_545  D
C245        H247   1.087       .  S
C246        H248   1.086       .  S
C249        C250   1.349   1_645  D
C249        H251   1.086       .  S
C250        H252   1.087       .  S
C253        C254   1.350   1_445  D
C253        H255   1.087       .  S
C254        H256   1.086       .  S
C257        C258   1.406       .  A
C257        C262   1.393       .  A
C257        H263   1.083       .  S
C258        C259   1.406       .  A
C259        C260   1.397       .  A
C259        H264   1.083       .  S
C260        C261   1.401       .  A
C260        H265   1.083       .  S
C261        C262   1.399       .  A
C262        H266   1.083       .  S
C267        C268   1.402       .  A
C267        C272   1.394       .  A
C267        H273   1.083       .  S
C268        C269   1.404       .  A
C269        C270   1.393       .  A
C269        H274   1.083       .  S
C270        C271   1.400       .  A
C270        H275   1.083       .  S
C271        C272   1.402       .  A
C272        H276   1.083       .  S
C277        C278   1.406       .  A
C277        C282   1.392       .  A
C277        H283   1.083       .  S
C278        C279   1.405       .  A
C279        C280   1.404       .  A
C279        H284   1.083       .  S
C280        C281   1.406       .  A
C280        H285   1.083       .  S
C281        C282   1.399       .  A
C282        H286   1.083       .  S
C287        C288   1.408   1_554  A
C287        C292   1.393       .  A
C287        H293   1.083       .  S
C288        C289   1.407       .  A
C289        C290   1.404       .  A
C289        H294   1.083       .  S
C290        C291   1.407   1_556  A
C290        H295   1.083       .  S
C291        C292   1.400       .  A
C292        H296   1.083       .  S
C297        C298   1.217       .  T
C299        C300   1.220       .  T
C301        C302   1.411       .  A
C301        C306   1.409       .  A
C301        H307   1.083   1_655  S
C302        C303   1.410       .  A
C303        C304   1.405       .  A
C303        H308   1.083       .  S
C304        C305   1.406       .  A
C304        H309   1.083       .  S
C305        C306   1.407       .  A
C306        H310   1.083   1_655  S
C311        C312   1.408       .  A
C311        C316   1.417       .  A
C311        H317   1.083       .  S
C312        C313   1.410   1_455  A
C313        C314   1.399       .  A
C313        H318   1.083       .  S
C314        C315   1.404   1_655  A
C314        H319   1.083       .  S
C315        C316   1.413       .  A
C316        H320   1.083       .  S
C321        C322   1.185       .  T
C323        C324   1.186       .  T
C325        C326   1.405   1_455  A
C325        C330   1.402       .  A
C325        H331   1.083       .  S
C326        C327   1.409   1_554  A
C327        C328   1.393       .  A
C327        H332   1.083       .  S
C328        C329   1.398   1_656  A
C328        H333   1.084       .  S
C329        C330   1.405       .  A
C330        H334   1.083       .  S
C335        C336   1.406   1_455  A
C335        C340   1.394       .  A
C335        H341   1.083       .  S
C336        C337   1.404       .  A
C337        C338   1.401   1_556  A
C337        H342   1.083   1_556  S
C338        C339   1.404   1_554  A
C338        H343   1.083       .  S
C339        C340   1.399   1_655  A
C340        H344   1.083       .  S
C345        C346   1.242   1_554  T
C347        C348   1.241       .  T
C349        C350   1.203       .  T
C351        C352   1.203       .  T
