geometry optimzed in LAMMPS
_audit_creation_date              2020-11-30 
_audit_creation_method            'lammps2cif' 
_symmetry_space_group_name_H-M    'P1' 
_symmetry_Int_Tables_number       1 
_symmetry_cell_setting            triclinic 
loop_ 
_symmetry_equiv_pos_as_xyz 
  x,y,z 
_cell_length_a                    21.64884743 
_cell_length_b                    21.66258304498322 
_cell_length_c                    22.249717957005394 
_cell_angle_alpha                 89.40885621855978 
_cell_angle_beta                  85.49881188535208 
_cell_angle_gamma                 91.2953994972746 
loop_ 
_atom_site_label 
_atom_site_type_symbol 
_atom_site_fract_x 
_atom_site_fract_y 
_atom_site_fract_z 
_atom_site_charge 
N1          N  0.00681486  0.41801444  0.06626967    -0.34400
N2          N  0.01048328  0.42187158  0.93220098    -0.55000
N3          N  0.01587935  0.55483164  0.93589915    -0.34400
N4          N  0.01974035  0.55014226  0.06856343    -0.55000
C5          C  0.01365853  0.35769544  0.05299072     0.29200
C6          C  0.02073773  0.42558382  0.12432316     0.29200
C7          C  0.02576400  0.54679173  0.87548869     0.29200
C8          C  0.03097855  0.61422810  0.94760505     0.29200
C9          C  0.99506187  0.36150587  0.94287310     0.37800
C10         C  0.00034424  0.43422336  0.87376955     0.37800
C11         C  0.00988265  0.53908098  0.12863629     0.37800
C12         C  0.01213503  0.61126658  0.06027114     0.37800
C13         C  0.03158265  0.32643417  0.10341767    -0.19700
C14         C  0.03612172  0.36924089  0.14826472    -0.19700
C15         C  0.04739421  0.60196877  0.84856455    -0.19700
C16         C  0.05060218  0.64447648  0.89395985    -0.19700
C17         C  0.97564534  0.33532093  0.89075054    -0.20800
C18         C  0.97957029  0.38103389  0.84716565    -0.20800
C19         C  0.99640566  0.59336572  0.15850260    -0.20800
C20         C  0.99840367  0.63915830  0.11546916    -0.20800
C21         C  0.00012155  0.32908932  0.99824777    -0.16100
C22         C  0.01649139  0.48128955  0.15706623    -0.16100
C23         C  0.02172090  0.64319660  0.00438390    -0.16100
C24         C  0.01154710  0.49235450  0.84383924    -0.16100
H25         H  0.04023788  0.27761932  0.10763239     0.16800
H26         H  0.04875151  0.35979088  0.19348524     0.16800
H27         H  0.05875435  0.61101465  0.80104251     0.16800
H28         H  0.06454202  0.69257965  0.88791298     0.16800
H29         H  0.96007311  0.28819824  0.88446926     0.15100
H30         H  0.96804441  0.37554339  0.80134182     0.15100
H31         H  0.98522487  0.59930496  0.20613883     0.15100
H32         H  0.99074212  0.68750955  0.12425298     0.15100
H33         H  0.98682576  0.45007504  0.03932063     0.28300
H34         H  0.99270053  0.52428340  0.96647964     0.28300
N35         N  0.00344014  0.42487056  0.43810469    -0.34400
N36         N  0.00224659  0.43052223  0.57097092    -0.55000
N37         N  0.01265842  0.56512686  0.56202054    -0.34400
N38         N  0.02048022  0.55763550  0.42880901    -0.55000
C39         C  0.00595655  0.36430524  0.45289743     0.29200
C40         C  0.01866012  0.43041322  0.37787562     0.29200
C41         C  0.01794603  0.55723828  0.62226067     0.29200
C42         C  0.02680791  0.62507357  0.54714717     0.29200
C43         C  0.98296779  0.37115476  0.56471602     0.37800
C44         C  0.98978678  0.44464694  0.62981804     0.37800
C45         C  0.02296326  0.54529384  0.36898391     0.37800
C46         C  0.02496003  0.61980731  0.43378150     0.37800
C47         C  0.02302866  0.33105658  0.40137772    -0.19700
C48         C  0.03065619  0.37263440  0.35418189    -0.19700
C49         C  0.03485195  0.61340248  0.64614229    -0.19700
C50         C  0.04002148  0.65602248  0.59919871    -0.19700
C51         C  0.95821094  0.34757127  0.61973556    -0.20800
C52         C  0.96268674  0.39396297  0.66078045    -0.20800
C53         C  0.03122302  0.59963426  0.33596573    -0.20800
C54         C  0.03248402  0.64655598  0.37656785    -0.20800
C55         C  0.98902796  0.33731932  0.51043758    -0.16100
C56         C  0.02088637  0.48576691  0.34322754    -0.16100
C57         C  0.02644525  0.65322144  0.48853840    -0.16100
C58         C  0.00450631  0.50168386  0.65665973    -0.16100
H59         H  0.02905842  0.28172057  0.39789603     0.16800
H60         H  0.04392461  0.36154128  0.30772405     0.16800
H61         H  0.04176291  0.62306251  0.69275992     0.16800
H62         H  0.05213392  0.70443833  0.60330324     0.16800
H63         H  0.93806207  0.30203721  0.62932857     0.15100
H64         H  0.94572598  0.39137449  0.70756684     0.15100
H65         H  0.03865562  0.60496520  0.28770097     0.15100
H66         H  0.04062465  0.69472303  0.36464964     0.15100
H67         H  0.98525242  0.45885927  0.46631530     0.28300
H68         H  0.99516114  0.53287481  0.53347288     0.28300
O69         O  0.84678407  0.04190036  0.00412999    -0.76300
C70         C  0.96165873  0.00671052  0.14110210     0.84700
O71         O  0.04240004  0.11593298  0.94410300    -0.77400
O72         O  0.11914941  0.95183013  0.07644726    -0.78900
O73         O  0.92503851  0.83987560  0.00668402    -0.78700
O74         O  0.84906527  0.95730042  0.94839404    -0.77300
Zn75       Zn  0.92960854  0.04864052  0.03849372     1.55700
O76         O  0.01824885  0.83801198  0.04156176    -0.78700
Cd77       Cd  0.93561154  0.92528969  0.96517033     1.59700
Cd78       Cd  0.05656901  0.02196929  0.95737385     1.59600
O79         O  0.98785947  0.90340019  0.88974284    -0.78700
O80         O  0.98676872  0.98426654  0.00843942    -1.89200
Cd81       Cd  0.02537707  0.92929928  0.06780761     1.59900
O82         O  0.07030906  0.96840529  0.88191936    -0.78700
O83         O  0.96482552  0.94837825  0.14002970    -0.77300
C84         C  0.00885148  0.15269001  0.97645294     0.85200
C85         C  0.82078318  0.00383396  0.97033733     0.84900
O86         O  0.91302255  0.03246772  0.12712767    -0.76300
C87         C  0.97129537  0.81027240  0.02235010     0.85700
O88         O  0.96778709  0.13295461  0.01701792    -0.76400
C89         C  0.03988940  0.92162611  0.86487270     0.85800
C90         C  0.15689154  0.98551769  0.04257227     0.86100
O91         O  0.13906757  0.01523886  0.99756171    -0.78800
O92         O  0.98346569  0.14525254  0.48084614    -0.76300
C93         C  0.06112882  0.03958346  0.32799716     0.84700
O94         O  0.85279176  0.97684947  0.49921500    -0.77400
O95         O  0.04569965  0.85282023  0.44162684    -0.78900
O96         O  0.14590977  0.03897872  0.52004161    -0.78700
O97         O  0.02701671  0.12408765  0.56558576    -0.77300
Zn98       Zn  0.97173996  0.06524231  0.43712921     1.55700
O99         O  0.15529386  0.95871245  0.45894341    -0.78700
Cd100      Cd  0.05187903  0.03471658  0.54331956     1.59700
Cd101      Cd  0.93903253  0.93980201  0.50726867     1.59600
O102        O  0.04098757  0.96997391  0.60985515    -0.78700
O103        O  0.00621956  0.99865959  0.47837944    -1.89200
Cd104      Cd  0.06752647  0.94772921  0.43165809     1.59900
O105        O  0.95667294  0.91275973  0.59192818    -0.78700
O106        O  0.07819414  0.98718492  0.34670111    -0.77300
C107        C  0.83723652  0.01992486  0.46419087     0.85200
C108        C  0.00369198  0.16241164  0.53045340     0.84900
O109        O  0.02147285  0.07263775  0.35742729    -0.76300
C110        C  0.17905822  0.00097368  0.48943001     0.85700
O111        O  0.87777899  0.05331184  0.43313825    -0.76400
C112        C  0.00347971  0.92456028  0.62124950     0.85800
C113        C  0.99364161  0.82486000  0.45423798     0.86100
O114        O  0.94416565  0.85455978  0.46611373    -0.78800
N115        N  0.55811580  0.03792793  0.06791022    -0.34400
N116        N  0.42472732  0.02000386  0.07884097    -0.55000
N117        N  0.42728623  0.02692855  0.94561848    -0.34400
N118        N  0.56038560  0.03705893  0.93530129    -0.55000
C119        C  0.54815427  0.02220017  0.12713807     0.29200
C120        C  0.61904708  0.03014526  0.05197515     0.29200
C121        C  0.36778457  0.00886135  0.96098396     0.29200
C122        C  0.43934356  0.01618694  0.88571206     0.29200
C123        C  0.43393553  0.03211357  0.13729507     0.37800
C124        C  0.36356442  0.02720395  0.07232351     0.37800
C125        C  0.62001305  0.05350531  0.94177050     0.37800
C126        C  0.55054713  0.04783290  0.87683377     0.37800
C127        C  0.60329274  0.00420730  0.14887295    -0.19700
C128        C  0.64793851  0.00907765  0.10156979    -0.19700
C129        C  0.34189300  0.98609577  0.91021400    -0.19700
C130        C  0.38692711  0.99066018  0.86296762    -0.19700
C131        C  0.37815023  0.04605525  0.16826012    -0.20800
C132        C  0.33376717  0.04360408  0.12714145    -0.20800
C133        C  0.64829029  0.07488831  0.88721064    -0.20800
C134        C  0.60426744  0.07117757  0.84604030    -0.20800
C135        C  0.49177399  0.02816158  0.16303521    -0.16100
C136        C  0.65030999  0.04500850  0.99513140    -0.16100
C137        C  0.49497333  0.03265761  0.85043777    -0.16100
C138        C  0.33437538  0.01748709  0.01791509    -0.16100
H139        H  0.61073776  0.98942206  0.19420236     0.16800
H140        H  0.69640176  0.99872127  0.10370655     0.16800
H141        H  0.29499503  0.96863729  0.90727338     0.16800
H142        H  0.38141103  0.97729767  0.81698208     0.16800
H143        H  0.37021658  0.05729398  0.21534549     0.15100
H144        H  0.28521935  0.05323867  0.13677615     0.15100
H145        H  0.69581086  0.09093430  0.87786685     0.15100
H146        H  0.61107354  0.08415741  0.79893790     0.15100
H147        H  0.52707662  0.05971181  0.04184225     0.28300
H148        H  0.45501820  0.05225756  0.97288334     0.28300
N149        N  0.57047417  0.03521634  0.43412167    -0.34400
N150        N  0.56666003  0.02937878  0.56839613    -0.55000
N151        N  0.43499480  0.04683204  0.57698102    -0.34400
N152        N  0.43746484  0.04366874  0.44342089    -0.55000
C153        C  0.62821555  0.01537567  0.44212237     0.29200
C154        C  0.55872896  0.02396136  0.37593953     0.29200
C155        C  0.44267562  0.03362118  0.63564344     0.29200
C156        C  0.37396600  0.03965463  0.56926541     0.29200
C157        C  0.62869038  0.02929344  0.55451090     0.37800
C158        C  0.55783781  0.03682462  0.62904768     0.37800
C159        C  0.44816824  0.05299068  0.38315694     0.37800
C160        C  0.37788947  0.05860824  0.45764524     0.37800
C161        C  0.65387478  0.99231333  0.38795998    -0.19700
C162        C  0.61029454  0.99801164  0.34636509    -0.19700
C163        C  0.38557497  0.01929241  0.66571077    -0.19700
C164        C  0.34229792  0.02274652  0.62385257    -0.19700
C165        C  0.65915653  0.03659918  0.60675140    -0.20800
C166        C  0.61445386  0.04112873  0.65367433    -0.20800
C167        C  0.39534074  0.07414015  0.35923107    -0.20800
C168        C  0.35089579  0.07780011  0.40630302    -0.20800
C169        C  0.65881079  0.01808292  0.49656549    -0.16100
C170        C  0.50316492  0.03765352  0.34878025    -0.16100
C171        C  0.34551890  0.04990120  0.51503380    -0.16100
C172        C  0.49953905  0.03547590  0.66303968    -0.16100
H173        H  0.69908035  0.97251676  0.37922060     0.16800
H174        H  0.61570032  0.98367013  0.29993060     0.16800
H175        H  0.37602855  0.00707131  0.71279464     0.16800
H176        H  0.29302049  0.01381248  0.63278226     0.16800
H177        H  0.70863526  0.03769518  0.61093818     0.15100
H178        H  0.62282665  0.04581309  0.70064369     0.15100
H179        H  0.38932402  0.08550677  0.31271905     0.15100
H180        H  0.30374957  0.09224689  0.40292766     0.15100
H181        H  0.54293904  0.05966207  0.46551499     0.28300
H182        H  0.46823799  0.06523582  0.54514651     0.28300
C183        C  0.49567499  0.03275880  0.78426745    -0.11100
C184        C  0.49764880  0.03365163  0.72931466    -0.12700
C185        C  0.50051469  0.03315397  0.28298112    -0.11100
C186        C  0.49477250  0.03042283  0.22888677    -0.12700
C187        C  0.27688659  0.04806854  0.51839210    -0.14300
C188        C  0.24684243  0.00550671  0.48769004    -0.29400
H189        H  0.25152959  0.07909511  0.54886621     0.14800
H190        H  0.27327966  0.97296559  0.45971936     0.15300
C191        C  0.77059185  0.03261993  0.46014851    -0.14300
C192        C  0.72579644  0.00236990  0.49504555    -0.29400
H193        H  0.75811549  0.06904618  0.42974179     0.14800
H194        H  0.73872670  0.96802822  0.52743190     0.15300
C195        C  0.26538553  0.02077335  0.01703193    -0.14300
C196        C  0.22379994  0.98810911  0.05382793    -0.29400
H197        H  0.24875499  0.04683790  0.97978989     0.14800
H198        H  0.23962828  0.95940495  0.08958463     0.15300
C199        C  0.75502097  0.01132008  0.95937161    -0.14300
C200        C  0.71899089  0.04996421  0.99260045    -0.29400
H201        H  0.73403035  0.97937477  0.92913900     0.14800
H202        H  0.73918344  0.07865126  0.02610931     0.15300
C203        C  0.06277117  0.88816689  0.81416903    -0.16300
C204        C  0.06236261  0.86473204  0.76613830     0.07700
C205        C  0.04015777  0.86176072  0.70965115     0.09600
C206        C  0.01783465  0.88338667  0.66728950    -0.17200
C207        C  0.01763513  0.04254262  0.14005906    -0.16300
C208        C  0.06073929  0.06524718  0.16274280     0.07700
C209        C  0.08802601  0.07192246  0.21691779     0.09600
C210        C  0.08486611  0.06110765  0.26988599    -0.17200
C211        C  0.03224544  0.72239561  0.48345578    -0.14300
C212        C  0.98978324  0.75647374  0.45743236    -0.29400
H213        H  0.07082058  0.74559492  0.50292706     0.14800
H214        H  0.94836954  0.73365990  0.44293274     0.15300
C215        C  0.97522739  0.26957771  0.51122177    -0.14300
C216        C  0.00364809  0.22889450  0.54524622    -0.29400
H217        H  0.94779670  0.25227760  0.47585551     0.14800
H218        H  0.03260517  0.24521174  0.57979791     0.15300
C219        C  0.00646858  0.50175585  0.72300320    -0.11900
C220        C  0.00857532  0.49708167  0.77773926    -0.12700
C221        C  0.02014368  0.47965318  0.22271680    -0.11100
C222        C  0.02198890  0.48126322  0.27727137    -0.12700
C223        C  0.97054574  0.74274557  0.01696607    -0.14300
C224        C  0.02305117  0.71154696  0.00596970    -0.29400
H225        H  0.92611625  0.71805594  0.02017506     0.14800
H226        H  0.06752172  0.73587695  0.99897758     0.15300
C227        C  0.98734390  0.26115787  0.00185567    -0.14300
C228        C  0.01866087  0.22011182  0.96699969    -0.29400
H229        H  0.95485307  0.24452624  0.03848877     0.14800
H230        H  0.05366874  0.23637333  0.93244030     0.15300
loop_ 
_geom_bond_atom_site_label_1 
_geom_bond_atom_site_label_2 
_geom_bond_distance 
_geom_bond_site_symmetry_2 
_ccdc_geom_bond_type 
N1            C6   1.360       .  A
N1            C5   1.351       .  A
N1           H33   1.037   1_455  S
N2            C9   1.356   1_455  A
N2           C10   1.360       .  A
N3            C8   1.353       .  A
N3            C7   1.358       .  A
N3           H34   1.037   1_455  S
N4           C11   1.355       .  A
N4           C12   1.351       .  A
C5           C13   1.390       .  A
C5           C21   1.420   1_554  A
C6           C22   1.417       .  A
C6           C14   1.385       .  A
C7           C15   1.387       .  A
C7           C24   1.420       .  A
C8           C23   1.419   1_556  A
C8           C16   1.388       .  A
C9           C21   1.425   1_655  A
C9           C17   1.387       .  A
C10          C24   1.425       .  A
C10          C18   1.383   1_455  A
C11          C19   1.382   1_455  A
C11          C22   1.412       .  A
C12          C20   1.388   1_455  A
C12          C23   1.415       .  A
C13          C14   1.377       .  A
C13          H25   1.082       .  S
C14          H26   1.082       .  S
C15          C16   1.378       .  A
C15          H27   1.081       .  S
C16          H28   1.082       .  S
C17          C18   1.375       .  A
C17          H29   1.082       .  S
C18          H30   1.076       .  S
C19          C20   1.369       .  A
C19          H31   1.078       .  S
C20          H32   1.082       .  S
C21         C227   1.491   1_456  S
C22         C221   1.469       .  S
C23         C224   1.481       .  S
C24         C220   1.480       .  S
N35          C40   1.358       .  A
N35          C39   1.353       .  A
N35          H67   1.037   1_455  S
N36          C43   1.355   1_455  A
N36          C44   1.355   1_455  A
N37          C42   1.359       .  A
N37          C41   1.363       .  A
N37          H68   1.034   1_455  S
N38          C45   1.358       .  A
N38          C46   1.354       .  A
C39          C47   1.390       .  A
C39          C55   1.420   1_455  A
C40          C56   1.417       .  A
C40          C48   1.385       .  A
C41          C49   1.386       .  A
C41          C58   1.431       .  A
C42          C57   1.434       .  A
C42          C50   1.390       .  A
C43          C55   1.418       .  A
C43          C51   1.385       .  A
C44          C58   1.418   1_655  A
C44          C52   1.384       .  A
C45          C53   1.382       .  A
C45          C56   1.418       .  A
C46          C54   1.390       .  A
C46          C57   1.426       .  A
C47          C48   1.374       .  A
C47          H59   1.082       .  S
C48          H60   1.082       .  S
C49          C50   1.383       .  A
C49          H61   1.081       .  S
C50          H62   1.082       .  S
C51          C52   1.372       .  A
C51          H63   1.082       .  S
C52          H64   1.077       .  S
C53          C54   1.368       .  A
C53          H65   1.078       .  S
C54          H66   1.081       .  S
C55         C215   1.491       .  S
C56         C222   1.470       .  S
C57         C211   1.503       .  S
C58         C219   1.480       .  S
O69          C85   1.273   1_554  A
O69         Zn75   2.007       .  S
C70         C207   1.423   1_655  S
C70          O86   1.261       .  A
C70          O83   1.267   1_545  A
O71          C84   1.279       .  A
O71         Cd78   2.087       .  S
O72          C90   1.278       .  A
O72         Cd81   2.101       .  S
O73          C87   1.271       .  A
O73         Cd77   2.059   1_554  S
O74          C85   1.273   1_565  A
O74         Cd77   2.072       .  S
Zn75         O86   2.002       .  S
Zn75         O88   2.025       .  S
Zn75         O80   1.972   1_545  S
O76          C87   1.274   1_455  A
O76         Cd81   2.074       .  S
Cd77         O79   2.016       .  S
Cd77         O80   1.978   1_556  S
Cd78         O82   2.057   1_545  S
Cd78         O91   2.066       .  S
Cd78         O80   1.974   1_446  S
O79          C89   1.268   1_655  A
O80         Cd81   2.012   1_655  S
Cd81         O83   2.044   1_455  S
O82          C89   1.273       .  A
C84         C228   1.482       .  S
C84          O88   1.279   1_456  A
C85         C199   1.475       .  S
C87         C223   1.469       .  S
C89         C203   1.410       .  S
C90         C196   1.489       .  S
C90          O91   1.275   1_564  A
O92         C108   1.275   1_655  A
O92         Zn98   2.017       .  S
C93         C210   1.423       .  S
C93         O109   1.276       .  A
C93         O106   1.277   1_545  A
O94         C107   1.277   1_565  A
O94        Cd101   2.069       .  S
O95         C113   1.277   1_455  A
O95        Cd104   2.105       .  S
O96         C110   1.272       .  A
O96        Cd100   2.061       .  S
O97         C108   1.274       .  A
O97        Cd100   2.076       .  S
Zn98        O109   2.004   1_655  S
Zn98        O111   2.054       .  S
Zn98        O103   1.900   1_645  S
O99         C110   1.269   1_565  A
O99        Cd104   2.049       .  S
Cd100       O102   2.025   1_545  S
Cd100       O103   1.972   1_545  S
Cd101       O105   2.034       .  S
Cd101       O114   2.071       .  S
Cd101       O103   1.977   1_655  S
O102        C112   1.272       .  A
O103       Cd104   1.983       .  S
Cd104       O106   2.061       .  S
O105        C112   1.270   1_655  A
C107        C191   1.484       .  S
C107        O111   1.279       .  A
C108        C216   1.481       .  S
C110        C188   1.466       .  S
C112        C206   1.409       .  S
C113        C212   1.483       .  S
C113        O114   1.273       .  A
N115        C120   1.354       .  A
N115        C119   1.357       .  A
N115        H147   1.039       .  S
N116        C123   1.358       .  A
N116        C124   1.356       .  A
N117        C122   1.361       .  A
N117        C121   1.355       .  A
N117        H148   1.039       .  S
N118        C125   1.350       .  A
N118        C126   1.353       .  A
C119        C127   1.385       .  A
C119        C135   1.414       .  A
C120        C136   1.417   1_554  A
C120        C128   1.389       .  A
C121        C129   1.390   1_545  A
C121        C138   1.425   1_556  A
C122        C137   1.421       .  A
C122        C130   1.385   1_545  A
C123        C135   1.421       .  A
C123        C131   1.384       .  A
C124        C138   1.424       .  A
C124        C132   1.388       .  A
C125        C133   1.386       .  A
C125        C136   1.413       .  A
C126        C134   1.385       .  A
C126        C137   1.413       .  A
C127        C128   1.373       .  A
C127        H139   1.080   1_545  S
C128        H140   1.082   1_545  S
C129        C130   1.378       .  A
C129        H141   1.082       .  S
C130        H142   1.081       .  S
C131        C132   1.378       .  A
C131        H143   1.079       .  S
C132        H144   1.081       .  S
C133        C134   1.374       .  A
C133        H145   1.082       .  S
C134        H146   1.080       .  S
C135        C186   1.473       .  S
C136        C200   1.485       .  S
C137        C183   1.471       .  S
C138        C195   1.499       .  S
N149        C154   1.362       .  A
N149        C153   1.355       .  A
N149        H181   1.039       .  S
N150        C157   1.354       .  A
N150        C158   1.360       .  A
N151        C156   1.351       .  A
N151        C155   1.357       .  A
N151        H182   1.039       .  S
N152        C159   1.355       .  A
N152        C160   1.351       .  A
C153        C161   1.389   1_545  A
C153        C169   1.427       .  A
C154        C170   1.424       .  A
C154        C162   1.384   1_545  A
C155        C163   1.386       .  A
C155        C172   1.416       .  A
C156        C171   1.415       .  A
C156        C164   1.389       .  A
C157        C169   1.424       .  A
C157        C165   1.389       .  A
C158        C172   1.419       .  A
C158        C166   1.383       .  A
C159        C167   1.384       .  A
C159        C170   1.412       .  A
C160        C168   1.388       .  A
C160        C171   1.416       .  A
C161        C162   1.379       .  A
C161        H173   1.082       .  S
C162        H174   1.080       .  S
C163        C164   1.375       .  A
C163        H175   1.081       .  S
C164        H176   1.082       .  S
C165        C166   1.373       .  A
C165        H177   1.082       .  S
C166        H178   1.080       .  S
C167        C168   1.370       .  A
C167        H179   1.080       .  S
C168        H180   1.082       .  S
C169        C192   1.495       .  S
C170        C185   1.474       .  S
C171        C187   1.481       .  S
C172        C184   1.472       .  S
C183        C184   1.220       .  T
C185        C186   1.222       .  T
C187        C188   1.340       .  D
C187        H189   1.087       .  S
C188        H190   1.088   1_545  S
C191        C192   1.347       .  D
C191        H193   1.087       .  S
C192        H194   1.087   1_545  S
C195        C196   1.351   1_545  D
C195        H197   1.087   1_554  S
C196        H198   1.086       .  S
C199        C200   1.344       .  D
C199        H201   1.087   1_545  S
C200        H202   1.087   1_556  S
C203        C204   1.188       .  T
C204        C205   1.382       .  S
C205        C206   1.189       .  T
C207        C208   1.194       .  T
C208        C209   1.391       .  S
C209        C210   1.196       .  T
C211        C212   1.353   1_455  D
C211        H213   1.086       .  S
C212        H214   1.087       .  S
C215        C216   1.346   1_655  D
C215        H217   1.087       .  S
C216        H218   1.086       .  S
C219        C220   1.226       .  T
C221        C222   1.218       .  T
C223        C224   1.343   1_655  D
C223        H225   1.087       .  S
C224        H226   1.087   1_554  S
C227        C228   1.346   1_654  D
C227        H229   1.087       .  S
C228        H230   1.087       .  S
