geometry optimzed in LAMMPS
_audit_creation_date              2020-11-30 
_audit_creation_method            'lammps2cif' 
_symmetry_space_group_name_H-M    'P1' 
_symmetry_Int_Tables_number       1 
_symmetry_cell_setting            triclinic 
loop_ 
_symmetry_equiv_pos_as_xyz 
  x,y,z 
_cell_length_a                    27.20430135 
_cell_length_b                    27.205446111519006 
_cell_length_c                    27.200630321309824 
_cell_angle_alpha                 90.01198118877933 
_cell_angle_beta                  89.97883052108118 
_cell_angle_gamma                 90.00060546566982 
loop_ 
_atom_site_label 
_atom_site_type_symbol 
_atom_site_fract_x 
_atom_site_fract_y 
_atom_site_fract_z 
_atom_site_charge 
N1          N  0.00414739  0.49863518  0.57501965    -0.35100
N2          N  0.00042565  0.57467787  0.49967432    -0.55700
N3          N  0.00250998  0.49879159  0.42432191    -0.35100
N4          N  0.00276610  0.42279181  0.49970809    -0.55700
C5          C  0.99446118  0.53865545  0.60292854     0.28500
C6          C  0.99505017  0.45847865  0.60294984     0.28500
C7          C  0.99349579  0.53873824  0.39609328     0.28500
C8          C  0.99524784  0.45853223  0.39605039     0.28500
C9          C  0.00820994  0.60338416  0.53945998     0.37100
C10         C  0.00693094  0.60354055  0.45976737     0.37100
C11         C  0.00970741  0.39391212  0.53951436     0.37100
C12         C  0.00963967  0.39396469  0.45984044     0.37100
C13         C  0.97948493  0.52375430  0.64936375    -0.20400
C14         C  0.97983733  0.47318522  0.64936844    -0.20400
C15         C  0.98073627  0.52364800  0.34904873    -0.20400
C16         C  0.98188452  0.47308956  0.34901044    -0.20400
C17         C  0.01922865  0.65095113  0.52479575    -0.21500
C18         C  0.01836735  0.65106287  0.47428834    -0.21500
C19         C  0.02044766  0.34627289  0.52489350    -0.21500
C20         C  0.02039159  0.34629968  0.47441500    -0.21500
C21         C  0.00188305  0.58808906  0.58867596    -0.16800
C22         C  0.00303024  0.40911784  0.58869549    -0.16800
C23         C  0.00331641  0.40924876  0.41060046    -0.16800
C24         C  0.99987077  0.58829452  0.41060207    -0.16800
H25         H  0.96984588  0.54690461  0.68026697     0.16100
H26         H  0.97049219  0.44991106  0.68026019     0.16100
H27         H  0.97233266  0.54665569  0.31769584     0.16100
H28         H  0.97443317  0.44975116  0.31764880     0.16100
H29         H  0.02648364  0.68242183  0.54804429     0.14400
H30         H  0.02497329  0.68261107  0.45095872     0.14400
H31         H  0.02695055  0.31464409  0.54813647     0.14400
H32         H  0.02688976  0.31468500  0.45113501     0.14400
H33         H  0.02165148  0.49882131  0.54113786     0.27600
H34         H  0.01829844  0.49907192  0.45895472     0.27600
O35         O  0.00049457  0.13867062  0.07989102    -0.85000
O36         O  0.99837928  0.85937320  0.08000898    -0.85200
O37         O  0.91950544  0.99991570  0.13917100    -0.86800
O38         O  0.07961033  0.99744583  0.13966594    -0.85600
O39         O  0.13959041  0.99693037  0.08009150    -0.85200
O40         O  0.86010218  0.99991496  0.07903947    -0.86600
O41         O  0.99911735  0.91906898  0.13989354    -0.85000
O42         O  0.99944462  0.07896843  0.13971372    -0.84600
Zr43       Zr  0.99958059  0.99887834  0.09909561     2.84300
O44         O  0.04890248  0.94861696  0.04966280    -1.06600
O45         O  0.95051229  0.04904151  0.04931755    -1.07300
C46         C  0.99987182  0.12410612  0.12503028     1.08100
C47         C  0.99869389  0.87395431  0.12519879     1.08000
C48         C  0.87449314  0.00000696  0.12426426     1.11000
C49         C  0.12479844  0.99685635  0.12515536     1.08800
H50         H  0.92865031  0.92914355  0.06954013     0.34400
O51         O  0.94950945  0.94949955  0.04925889    -1.27600
H52         H  0.07069281  0.06844239  0.07062856     0.34000
O53         O  0.05010324  0.04821082  0.04996091    -1.29200
O54         O  0.99945749  0.85906998  0.91948493    -0.85000
O55         O  0.00324606  0.13871304  0.92000600    -0.86500
O56         O  0.85922547  0.92057595  0.99770338    -0.85100
O57         O  0.13884371  0.91763701  0.00195460    -0.85100
O58         O  0.14085897  0.07709449  0.00040827    -0.84800
O59         O  0.86110225  0.08018533  0.00005712    -0.84700
O60         O  0.92107763  0.99842903  0.85930333    -0.85000
O61         O  0.08068481  0.99813567  0.86013514    -0.84500
O62         O  0.86103890  0.99857324  0.91882843    -0.85500
O63         O  0.14001613  0.99772055  0.92031378    -0.84700
O64         O  0.91836096  0.86018518  0.99721585    -0.85100
O65         O  0.92137421  0.13944718  0.00064491    -0.84800
O66         O  0.08168806  0.13745135  0.00090035    -0.84500
O67         O  0.07857560  0.85836893  0.00149214    -0.84900
O68         O  0.99973673  0.91883420  0.85969785    -0.85200
O69         O  0.00286463  0.07906027  0.86007977    -0.86500
Zr70       Zr  0.99899254  0.89951941  0.99964929     2.83100
Zr71       Zr  0.00102624  0.09814378  0.99992726     2.83500
Zr72       Zr  0.90091201  0.99983850  0.99912368     2.84100
Zr73       Zr  0.09916508  0.99787632  0.00020960     2.83400
Zr74       Zr  0.00068081  0.99889147  0.90036287     2.84200
O75         O  0.05051062  0.04821498  0.95027724    -1.07100
O76         O  0.95023318  0.94964894  0.94962723    -1.06600
C77         C  0.99959098  0.87367565  0.87432021     1.08100
C78         C  0.00366850  0.12416953  0.87483307     1.10700
C79         C  0.87338034  0.87531864  0.99689079     1.08200
C80         C  0.12380097  0.87266606  0.00216450     1.08600
C81         C  0.12667460  0.12233882  0.00085661     1.08200
C82         C  0.87610974  0.12519373  0.00069085     1.07700
C83         C  0.87590171  0.99813284  0.87376776     1.08200
C84         C  0.12567986  0.99781093  0.87507976     1.07700
H85         H  0.93081535  0.07003255  0.92893458     0.34400
O86         O  0.95100440  0.04933086  0.94952554    -1.28200
H87         H  0.07014339  0.92776297  0.92979656     0.34400
O88         O  0.04965208  0.94847588  0.95009910    -1.29600
N89         N  0.50100719  0.99369411  0.57547128    -0.35100
N90         N  0.57633856  0.99993241  0.49903293    -0.55700
N91         N  0.49919888  0.00506326  0.42417171    -0.35100
N92         N  0.42388831  0.99878292  0.50061114    -0.55700
C93         C  0.54137828  0.99923186  0.60409014     0.28500
C94         C  0.46113327  0.99842119  0.60493938     0.28500
C95         C  0.53905158  0.00050186  0.39463875     0.28500
C96         C  0.45876825  0.00022418  0.39550090     0.28500
C97         C  0.60642284  0.99865834  0.53854141     0.37100
C98         C  0.60549212  0.00163650  0.45883674     0.37100
C99         C  0.39473355  0.99684586  0.54078832     0.37100
C100        C  0.39378279  0.00046875  0.46113407     0.37100
C101        C  0.52690318  0.00607653  0.65255893    -0.20400
C102        C  0.47644724  0.00556800  0.65308955    -0.20400
C103        C  0.52365738  0.99427982  0.34638249    -0.20400
C104        C  0.47319028  0.99411285  0.34692308    -0.20400
C105        C  0.65508681  0.99960775  0.52332717    -0.21500
C106        C  0.65450069  0.00153331  0.47294435    -0.21500
C107        C  0.34572021  0.99729495  0.52671512    -0.21500
C108        C  0.34512275  0.99967642  0.47636779    -0.21500
C109        C  0.59099824  0.99849362  0.58822000    -0.16800
C110        C  0.41122939  0.99677117  0.59009793    -0.16800
C111        C  0.40914762  0.00077716  0.41144269    -0.16800
C112        C  0.58899482  0.00149895  0.40950211    -0.16800
H113        H  0.55023389  0.01159636  0.68431518     0.16100
H114        H  0.45365217  0.01063494  0.68532260     0.16100
H115        H  0.54639757  0.98963428  0.31404865     0.16100
H116        H  0.44981543  0.98929107  0.31508690     0.16100
H117        H  0.68769112  0.99928800  0.54612318     0.14400
H118        H  0.68658515  0.00246533  0.44941440     0.14400
H119        H  0.31363782  0.99642884  0.55025027     0.14400
H120        H  0.31250464  0.00042046  0.45360284     0.14400
H121        H  0.50069896  0.98371787  0.53876004     0.27600
H122        H  0.49956784  0.01422047  0.46107696     0.27600
N123        N  0.49907705  0.57451813  0.99261075    -0.35100
N124        N  0.57626125  0.49973288  0.99898108    -0.55700
N125        N  0.50064559  0.42358086  0.00607804    -0.35100
N126        N  0.42348776  0.49823299  0.99938519    -0.55700
C127        C  0.53900451  0.60409909  0.99592300     0.28500
C128        C  0.45865271  0.60333947  0.99666949     0.28500
C129        C  0.54108156  0.39475526  0.00236975     0.28500
C130        C  0.46079085  0.39395009  0.00239187     0.28500
C131        C  0.60544261  0.53979697  0.99603072     0.37100
C132        C  0.60626702  0.46021380  0.00098435     0.37100
C133        C  0.39347889  0.53776826  0.99779163     0.37100
C134        C  0.39431201  0.45811488  0.00182637     0.37100
C135        C  0.52365852  0.65254624  0.00054821    -0.20400
C136        C  0.47316491  0.65207118  0.00101878    -0.20400
C137        C  0.52664939  0.34603174  0.99777041    -0.20400
C138        C  0.47619438  0.34552704  0.99777690    -0.20400
C139        C  0.65444299  0.52559562  0.99605533    -0.21500
C140        C  0.65496106  0.47528161  0.99925187    -0.21500
C141        C  0.34478716  0.52262121  0.99908220    -0.21500
C142        C  0.34531854  0.47226530  0.00160994    -0.21500
C143        C  0.58896144  0.58912257  0.99511745    -0.16800
C144        C  0.40897255  0.58742071  0.99687581    -0.16800
C145        C  0.41083247  0.40880669  0.00298463    -0.16800
C146        C  0.59072799  0.41061590  0.00268529    -0.16800
H147        H  0.54644893  0.68499214  0.00385978     0.16100
H148        H  0.44983472  0.68408716  0.00475926     0.16100
H149        H  0.55001641  0.31403359  0.99412215     0.16100
H150        H  0.45347093  0.31306530  0.99418142     0.16100
H151        H  0.68656074  0.54901381  0.99423680     0.14400
H152        H  0.68753112  0.45243173  0.99988587     0.14400
H153        H  0.31219503  0.54544107  0.99859174     0.14400
H154        H  0.31322172  0.44879170  0.00303780     0.14400
H155        H  0.49939592  0.53734846  0.98479691     0.27600
H156        H  0.50028110  0.46070837  0.01412641     0.27600
C157        C  0.69485409  0.69607021  0.99620771     0.18500
C158        C  0.69340957  0.73387123  0.03117094    -0.10600
C159        C  0.72947334  0.77052844  0.03095837    -0.11500
C160        C  0.76711619  0.76952134  0.99578407     0.20100
C161        C  0.76867525  0.73157284  0.96098372    -0.13500
C162        C  0.73263575  0.69491022  0.96121609    -0.11800
C163        C  0.80426818  0.80719580  0.99558819     0.01000
C164        C  0.83569181  0.83844947  0.99587210    -0.31800
C165        C  0.65742887  0.65872173  0.99593995     0.02400
C166        C  0.62617169  0.62730821  0.99545792    -0.33500
H167        H  0.66438171  0.73507357  0.05842940     0.13500
H168        H  0.72798150  0.79963299  0.05811259     0.13300
H169        H  0.79767258  0.73036744  0.93369615     0.13100
H170        H  0.73412731  0.66579534  0.93407077     0.12200
C171        C  0.69709492  0.30411880  0.00240222     0.18500
C172        C  0.74679015  0.31754887  0.00356725    -0.10600
C173        C  0.78329364  0.28133792  0.00348300    -0.11500
C174        C  0.77025230  0.23151964  0.00221947     0.20100
C175        C  0.72052626  0.21809377  0.00104072    -0.13500
C176        C  0.68401377  0.25431581  0.00112853    -0.11800
C177        C  0.80781427  0.19421431  0.00190724     0.01000
C178        C  0.83908430  0.16278326  0.00141002    -0.31800
C179        C  0.65965557  0.34146093  0.00254380     0.02400
C180        C  0.62848403  0.37296457  0.00265403    -0.33500
H181        H  0.75727774  0.35596033  0.00453393     0.13500
H182        H  0.82160904  0.29216018  0.00436093     0.13300
H183        H  0.71002132  0.17969276  0.00001745     0.13100
H184        H  0.64568337  0.24352883  0.00019954     0.12200
C185        C  0.30201034  0.69335178  0.00001530     0.18500
C186        C  0.31514605  0.74281370  0.00575162    -0.10600
C187        C  0.27884250  0.77919601  0.00651918    -0.11500
C188        C  0.22924572  0.76625692  0.00158952     0.20100
C189        C  0.21608369  0.71680355  0.99577359    -0.13500
C190        C  0.25240216  0.68040771  0.99499852    -0.11800
C191        C  0.19193810  0.80370182  0.00240030     0.01000
C192        C  0.16076286  0.83515445  0.00269113    -0.31800
C193        C  0.33945869  0.65601172  0.99908346     0.02400
C194        C  0.37104929  0.62492335  0.99810443    -0.33500
H195        H  0.35339739  0.75321564  0.00960134     0.13500
H196        H  0.28941405  0.81733679  0.01095930     0.13300
H197        H  0.17783197  0.70642357  0.99185854     0.13100
H198        H  0.24184661  0.64227091  0.99048513     0.12200
C199        C  0.23323802  0.22775070  0.00281697     0.18500
C200        C  0.28305600  0.21464109  0.00309116    -0.10600
C201        C  0.31930585  0.25113329  0.00329759    -0.11500
C202        C  0.30585417  0.30086288  0.00323944     0.20100
C203        C  0.25604779  0.31393609  0.00303284    -0.13500
C204        C  0.21982159  0.27746828  0.00282528    -0.11800
C205        C  0.34300900  0.33851417  0.00324393     0.01000
C206        C  0.37378717  0.37042197  0.00314495    -0.31800
C207        C  0.19588622  0.19030074  0.00225959     0.02400
C208        C  0.16434238  0.15919346  0.00159833    -0.33500
H209        H  0.29383189  0.17630059  0.00305891     0.13500
H210        H  0.35772006  0.24061626  0.00343279     0.13300
H211        H  0.24525550  0.35227320  0.00296332     0.13100
H212        H  0.18141665  0.28801288  0.00258608     0.12200
C213        C  0.69721071  0.99946964  0.69486955     0.18500
C214        C  0.68402609  0.00245961  0.74459250    -0.10600
C215        C  0.72037595  0.00167429  0.78095493    -0.11500
C216        C  0.77002131  0.99789469  0.76772030     0.20100
C217        C  0.78317835  0.99496660  0.71800764    -0.13500
C218        C  0.74684663  0.99575228  0.68166401    -0.11800
C219        C  0.80745133  0.99739259  0.80506483     0.01000
C220        C  0.83879126  0.99748928  0.83636821    -0.31800
C221        C  0.65991002  0.99978326  0.65739305     0.02400
C222        C  0.62878713  0.99947369  0.62583961    -0.33500
H223        H  0.64573957  0.00532534  0.75520575     0.13500
H224        H  0.70981472  0.00402688  0.81929531     0.13300
H225        H  0.82145611  0.99210168  0.70737273     0.13100
H226        H  0.75741787  0.99340153  0.64332657     0.12200
C227        C  0.23206551  0.99750076  0.76946413     0.18500
C228        C  0.28174876  0.99672941  0.78298374    -0.10600
C229        C  0.31830303  0.99701174  0.74682534    -0.11500
C230        C  0.30530633  0.99803836  0.69700909     0.20100
C231        C  0.25562589  0.99893750  0.68346989    -0.13500
C232        C  0.21906416  0.99865790  0.71963449    -0.11800
C233        C  0.34287727  0.99778520  0.65981291     0.01000
C234        C  0.37410288  0.99733942  0.62836542    -0.31800
C235        C  0.19451349  0.99728985  0.80671133     0.02400
C236        C  0.16314110  0.99740902  0.83800340    -0.33500
H237        H  0.29219079  0.99587886  0.82140886     0.13500
H238        H  0.35661690  0.99632064  0.75766964     0.13300
H239        H  0.24520154  0.99974115  0.64503461     0.13100
H240        H  0.18075309  0.99930759  0.70878127     0.12200
C241        C  0.23055192  0.99607089  0.23142777     0.18500
C242        C  0.28031801  0.99221247  0.21866274    -0.10600
C243        C  0.31640911  0.99264548  0.25529809    -0.11500
C244        C  0.30287603  0.99695395  0.30483029     0.20100
C245        C  0.25311013  0.00060563  0.31758666    -0.13500
C246        C  0.21703291  0.00017459  0.28096621    -0.11800
C247        C  0.34001070  0.99808314  0.34248723     0.01000
C248        C  0.37125032  0.99933038  0.37391916    -0.31800
C249        C  0.19336616  0.99605490  0.19379869     0.02400
C250        C  0.16201412  0.99629059  0.16248602    -0.33500
H251        H  0.29118800  0.98900760  0.18047181     0.13500
H252        H  0.35479158  0.98979452  0.24503279     0.13300
H253        H  0.24224301  0.00394521  0.35576729     0.13100
H254        H  0.17866640  0.00316465  0.29124183     0.12200
C255        C  0.69488058  0.99867965  0.30246490     0.18500
C256        C  0.74447202  0.99515969  0.31592237    -0.10600
C257        C  0.78106422  0.99522310  0.27977113    -0.11500
C258        C  0.76819268  0.99881485  0.23001940     0.20100
C259        C  0.71858978  0.00205688  0.21656634    -0.13500
C260        C  0.68200593  0.00198244  0.25270922    -0.11800
C261        C  0.80577914  0.99937689  0.19278186     0.01000
C262        C  0.83708491  0.99984326  0.16141237    -0.31800
C263        C  0.65731452  0.99939672  0.33970620     0.02400
C264        C  0.62613349  0.00032139  0.37121583    -0.33500
H265        H  0.75481508  0.99256940  0.35429968     0.13500
H266        H  0.81930428  0.99264394  0.29058641     0.13300
H267        H  0.70823846  0.00479649  0.17820503     0.13100
H268        H  0.64377148  0.00469239  0.24190452     0.12200
C269        C  0.00424418  0.30311378  0.69569225     0.18500
C270        C  0.96781796  0.30266475  0.73211592    -0.10600
C271        C  0.96831336  0.26650056  0.76867615    -0.11500
C272        C  0.00523264  0.23057774  0.76900425     0.20100
C273        C  0.04171635  0.23105103  0.73260539    -0.13500
C274        C  0.04120740  0.26722149  0.69601636    -0.11800
C275        C  0.00535886  0.19307273  0.80640136     0.01000
C276        C  0.00485056  0.16159577  0.83763908    -0.31800
C277        C  0.00371395  0.34043245  0.65814556     0.02400
C278        C  0.00325101  0.37172186  0.62671511    -0.33500
H279        H  0.93907550  0.33023234  0.73223657     0.13500
H280        H  0.93990366  0.26649461  0.79660069     0.13300
H281        H  0.07043185  0.20345640  0.73246333     0.13100
H282        H  0.06956185  0.26720498  0.66803327     0.12200
C283        C  0.00097673  0.76698589  0.76861886     0.17100
C284        C  0.98075282  0.77645026  0.72220651    -0.10600
C285        C  0.98089075  0.73990621  0.68602356    -0.11500
C286        C  0.00127010  0.69369445  0.69603015     0.20100
C287        C  0.02149800  0.68415532  0.74244406    -0.13500
C288        C  0.02137277  0.72073444  0.77865633    -0.11800
C289        C  0.00157636  0.65630472  0.65856228     0.01000
C290        C  0.00173006  0.62535933  0.62679489    -0.31800
C291        C  0.00054945  0.80465773  0.80588662     0.02400
C292        C  0.99998142  0.83626819  0.83702385    -0.33500
H293        H  0.96487160  0.81203573  0.71401540     0.13500
H294        H  0.96516707  0.74768053  0.65026880     0.13300
H295        H  0.03735752  0.64854439  0.75059021     0.13100
H296        H  0.03710537  0.71296951  0.81440695     0.12200
C297        C  0.99796845  0.69421891  0.30357116     0.18500
C298        C  0.98476223  0.74253996  0.31553967    -0.10600
C299        C  0.98495149  0.77905489  0.27932973    -0.11500
C300        C  0.99834143  0.76743756  0.23095106     0.20100
C301        C  0.01156879  0.71909688  0.21896847    -0.13500
C302        C  0.01136169  0.68256228  0.25519258    -0.11800
C303        C  0.99843972  0.80506852  0.19368230     0.01000
C304        C  0.99849859  0.83658007  0.16247340    -0.31800
C305        C  0.99822048  0.65682212  0.34102888     0.02400
C306        C  0.99881133  0.62574215  0.37265757    -0.33500
H307        H  0.97442661  0.75197920  0.35283745     0.13500
H308        H  0.97469526  0.81629290  0.28904046     0.13300
H309        H  0.02202829  0.70968438  0.18169961     0.13100
H310        H  0.02170730  0.64533211  0.24553230     0.12200
C311        C  0.00180494  0.23107432  0.23022894     0.18500
C312        C  0.97784813  0.27603388  0.22252342    -0.10600
C313        C  0.97890861  0.31237672  0.25892150    -0.11500
C314        C  0.00392565  0.30390459  0.30314025     0.20100
C315        C  0.02804160  0.25905543  0.31074678    -0.13500
C316        C  0.02699556  0.22273887  0.27436501    -0.11800
C317        C  0.00435456  0.34094982  0.34088363     0.01000
C318        C  0.00409160  0.37191740  0.37259180    -0.31800
C319        C  0.00052415  0.19340723  0.19305038     0.02400
C320        C  0.99995597  0.16159385  0.16216732    -0.33500
H321        H  0.95828878  0.28291268  0.18852443     0.13500
H322        H  0.96012309  0.34693879  0.25269210     0.13300
H323        H  0.04746258  0.25211679  0.34481569     0.13100
H324        H  0.04567538  0.18814296  0.28068970     0.12200
loop_ 
_geom_bond_atom_site_label_1 
_geom_bond_atom_site_label_2 
_geom_bond_distance 
_geom_bond_site_symmetry_2 
_ccdc_geom_bond_type 
N1            C6   1.354   1_455  A
N1            C5   1.353   1_455  A
N1           H33   1.037       .  S
N2            C9   1.351       .  A
N2           C10   1.351       .  A
N3            C8   1.353   1_455  A
N3            C7   1.353   1_455  A
N3           H34   1.036       .  S
N4           C11   1.351       .  A
N4           C12   1.351       .  A
C5           C13   1.388       .  A
C5           C21   1.414   1_655  A
C6           C22   1.414   1_655  A
C6           C14   1.387       .  A
C7           C15   1.388       .  A
C7           C24   1.415       .  A
C8           C23   1.415   1_655  A
C8           C16   1.388       .  A
C9           C21   1.412       .  A
C9           C17   1.387       .  A
C10          C24   1.413   1_455  A
C10          C18   1.387       .  A
C11          C19   1.387       .  A
C11          C22   1.412       .  A
C12          C20   1.387       .  A
C12          C23   1.413       .  A
C13          C14   1.376       .  A
C13          H25   1.082       .  S
C14          H26   1.082       .  S
C15          C16   1.376       .  A
C15          H27   1.082       .  S
C16          H28   1.083       .  S
C17          C18   1.374       .  A
C17          H29   1.082       .  S
C18          H30   1.082       .  S
C19          C20   1.373       .  A
C19          H31   1.082       .  S
C20          H32   1.082       .  S
C21         C290   1.450       .  S
C22         C278   1.451       .  S
C23         C318   1.449       .  S
C24         C306   1.451       .  S
O35         Zr71   2.438   1_554  S
O35          C46   1.290   1_455  A
O36         Zr70   2.444   1_554  S
O36          C47   1.292       .  A
O37         Zr43   2.436       .  S
O37          C48   1.290   1_565  A
O38         Zr43   2.442   1_455  S
O38          C49   1.291       .  A
O39         Zr73   2.436       .  S
O39          C49   1.290       .  A
O40         Zr72   2.440   1_554  S
O40          C48   1.291   1_565  A
O41         Zr43   2.439       .  S
O41          C47   1.291       .  A
O42         Zr43   2.443   1_545  S
O42          C46   1.291       .  A
Zr43         O44   2.340   1_655  S
Zr43         O45   2.341   1_565  S
Zr43         O53   2.340   1_665  S
Zr43         O51   2.345       .  S
O44         Zr70   2.341   1_454  S
O44         Zr73   2.340       .  S
O45         Zr71   2.340   1_654  S
O45         Zr72   2.340   1_544  S
C46         C320   1.435       .  S
C47         C304   1.436       .  S
C48         C262   1.434   1_545  S
C49         C250   1.434       .  S
H50          O51   0.966       .  S
O51         Zr70   2.341   1_554  S
O51         Zr72   2.342   1_554  S
H52          O53   0.966       .  S
O53         Zr71   2.341   1_554  S
O53         Zr73   2.342   1_545  S
O54         Zr70   2.442       .  S
O54          C77   1.291       .  A
O55         Zr71   2.439       .  S
O55          C78   1.291       .  A
O56         Zr72   2.437       .  S
O56          C79   1.290       .  A
O57         Zr73   2.436       .  S
O57          C80   1.290       .  A
O58         Zr73   2.435   1_545  S
O58          C81   1.290       .  A
O59         Zr72   2.440   1_544  S
O59          C82   1.291       .  A
O60         Zr74   2.437   1_655  S
O60          C83   1.290       .  A
O61         Zr74   2.436       .  S
O61          C84   1.290       .  A
O62         Zr72   2.439       .  S
O62          C83   1.291       .  A
O63         Zr73   2.441   1_556  S
O63          C84   1.291       .  A
O64         Zr70   2.442       .  S
O64          C79   1.291       .  A
O65         Zr71   2.441   1_654  S
O65          C82   1.291       .  A
O66         Zr71   2.441   1_554  S
O66          C81   1.291       .  A
O67         Zr70   2.438   1_454  S
O67          C80   1.290       .  A
O68         Zr74   2.443   1_655  S
O68          C77   1.291       .  A
O69         Zr74   2.442   1_545  S
O69          C78   1.291       .  A
Zr70         O76   2.339       .  S
Zr70         O88   2.343   1_655  S
Zr71         O75   2.341       .  S
Zr71         O86   2.344   1_455  S
Zr72         O76   2.340       .  S
Zr72         O86   2.343   1_565  S
Zr73         O75   2.340   1_564  S
Zr73         O88   2.341   1_554  S
Zr74         O75   2.341   1_565  S
Zr74         O76   2.339   1_455  S
Zr74         O88   2.343       .  S
Zr74         O86   2.344   1_465  S
C77         C292   1.437       .  S
C78         C276   1.436       .  S
C79         C164   1.435       .  S
C80         C192   1.433       .  S
C81         C208   1.434       .  S
C82         C178   1.436       .  S
C83         C220   1.434       .  S
C84         C236   1.434       .  S
H85          O86   0.966       .  S
H87          O88   0.966       .  S
N89          C94   1.355       .  A
N89          C93   1.355       .  A
N89         H121   1.035       .  S
N90          C97   1.352       .  A
N90          C98   1.351   1_565  A
N91          C96   1.355       .  A
N91          C95   1.355       .  A
N91         H122   1.034       .  S
N92          C99   1.351       .  A
N92         C100   1.352   1_565  A
C93         C101   1.388   1_565  A
C93         C109   1.417       .  A
C94         C110   1.417       .  A
C94         C102   1.388   1_565  A
C95         C103   1.388   1_545  A
C95         C112   1.418       .  A
C96         C111   1.418       .  A
C96         C104   1.388   1_545  A
C97         C109   1.415       .  A
C97         C105   1.387       .  A
C98         C112   1.415       .  A
C98         C106   1.388       .  A
C99         C107   1.387       .  A
C99         C110   1.414       .  A
C100        C108   1.387   1_545  A
C100        C111   1.415       .  A
C101        C102   1.373       .  A
C101        H113   1.083       .  S
C102        H114   1.083       .  S
C103        C104   1.373       .  A
C103        H115   1.082       .  S
C104        H116   1.083       .  S
C105        C106   1.372   1_565  A
C105        H117   1.082       .  S
C106        H118   1.082       .  S
C107        C108   1.371       .  A
C107        H119   1.082       .  S
C108        H120   1.082   1_565  S
C109        C222   1.451       .  S
C110        C234   1.450       .  S
C111        C248   1.452   1_545  S
C112        C264   1.451       .  S
N123        C128   1.355       .  A
N123        C127   1.355       .  A
N123        H155   1.033       .  S
N124        C131   1.351       .  A
N124        C132   1.351   1_556  A
N125        C130   1.355       .  A
N125        C129   1.355       .  A
N125        H156   1.034       .  S
N126        C133   1.351       .  A
N126        C134   1.351   1_556  A
C127        C135   1.388   1_556  A
C127        C143   1.419       .  A
C128        C144   1.419       .  A
C128        C136   1.388   1_556  A
C129        C137   1.388   1_554  A
C129        C146   1.418       .  A
C130        C145   1.418       .  A
C130        C138   1.388   1_554  A
C131        C143   1.415       .  A
C131        C139   1.388       .  A
C132        C146   1.415       .  A
C132        C140   1.387   1_554  A
C133        C141   1.388       .  A
C133        C144   1.415       .  A
C134        C142   1.387       .  A
C134        C145   1.415       .  A
C135        C136   1.374       .  A
C135        H147   1.082       .  S
C136        H148   1.082       .  S
C137        C138   1.373       .  A
C137        H149   1.082       .  S
C138        H150   1.082       .  S
C139        C140   1.372       .  A
C139        H151   1.082       .  S
C140        H152   1.083       .  S
C141        C142   1.372   1_556  A
C141        H153   1.082       .  S
C142        H154   1.082       .  S
C143        C166   1.451       .  S
C144        C194   1.451       .  S
C145        C206   1.451       .  S
C146        C180   1.451       .  S
C157        C158   1.401   1_556  A
C157        C162   1.401       .  A
C157        C165   1.438       .  S
C158        C159   1.399       .  A
C158        H167   1.083       .  S
C159        C160   1.401   1_554  A
C159        H168   1.083       .  S
C160        C161   1.401       .  A
C160        C163   1.439       .  S
C161        C162   1.399       .  A
C161        H169   1.083       .  S
C162        H170   1.083       .  S
C163        C164   1.206       .  T
C165        C166   1.206       .  T
C171        C172   1.401       .  A
C171        C176   1.401       .  A
C171        C179   1.439       .  S
C172        C173   1.399       .  A
C172        H181   1.084       .  S
C173        C174   1.401       .  A
C173        H182   1.083       .  S
C174        C175   1.402       .  A
C174        C177   1.440       .  S
C175        C176   1.399       .  A
C175        H183   1.083       .  S
C176        H184   1.084       .  S
C177        C178   1.206       .  T
C179        C180   1.206       .  T
C185        C186   1.401       .  A
C185        C190   1.401   1_554  A
C185        C193   1.439   1_554  S
C186        C187   1.398       .  A
C186        H195   1.083       .  S
C187        C188   1.401       .  A
C187        H196   1.083       .  S
C188        C189   1.401   1_554  A
C188        C191   1.438       .  S
C189        C190   1.399       .  A
C189        H197   1.084       .  S
C190        H198   1.083       .  S
C191        C192   1.205       .  T
C193        C194   1.206       .  T
C199        C200   1.401       .  A
C199        C204   1.401       .  A
C199        C207   1.439       .  S
C200        C201   1.399       .  A
C200        H209   1.083       .  S
C201        C202   1.402       .  A
C201        H210   1.084       .  S
C202        C203   1.401       .  A
C202        C205   1.439       .  S
C203        C204   1.398       .  A
C203        H211   1.084       .  S
C204        H212   1.083       .  S
C205        C206   1.206       .  T
C207        C208   1.205       .  T
C213        C214   1.401   1_565  A
C213        C218   1.401       .  A
C213        C221   1.439       .  S
C214        C215   1.399       .  A
C214        H223   1.084       .  S
C215        C216   1.401   1_545  A
C215        H224   1.084       .  S
C216        C217   1.401       .  A
C216        C219   1.439       .  S
C217        C218   1.398       .  A
C217        H225   1.083       .  S
C218        H226   1.084       .  S
C219        C220   1.205       .  T
C221        C222   1.206       .  T
C227        C228   1.401       .  A
C227        C232   1.401       .  A
C227        C235   1.439       .  S
C228        C229   1.398       .  A
C228        H237   1.083       .  S
C229        C230   1.401       .  A
C229        H238   1.084       .  S
C230        C231   1.401       .  A
C230        C233   1.438       .  S
C231        C232   1.399       .  A
C231        H239   1.084       .  S
C232        H240   1.083       .  S
C233        C234   1.205       .  T
C235        C236   1.205       .  T
C241        C242   1.401       .  A
C241        C246   1.401   1_565  A
C241        C249   1.439       .  S
C242        C243   1.399       .  A
C242        H251   1.083       .  S
C243        C244   1.401       .  A
C243        H252   1.084       .  S
C244        C245   1.401   1_565  A
C244        C247   1.439       .  S
C245        C246   1.399       .  A
C245        H253   1.083       .  S
C246        H254   1.083       .  S
C247        C248   1.206       .  T
C249        C250   1.206       .  T
C255        C256   1.401       .  A
C255        C260   1.401   1_565  A
C255        C263   1.439       .  S
C256        C257   1.399       .  A
C256        H265   1.084       .  S
C257        C258   1.401       .  A
C257        H266   1.083       .  S
C258        C259   1.401   1_565  A
C258        C261   1.439       .  S
C259        C260   1.399       .  A
C259        H267   1.083       .  S
C260        H268   1.083       .  S
C261        C262   1.205       .  T
C263        C264   1.206   1_565  T
C269        C270   1.401   1_455  A
C269        C274   1.402       .  A
C269        C277   1.440       .  S
C270        C271   1.399       .  A
C270        H279   1.083       .  S
C271        C272   1.401   1_655  A
C271        H280   1.083       .  S
C272        C273   1.402       .  A
C272        C275   1.441       .  S
C273        C274   1.400       .  A
C273        H281   1.083       .  S
C274        H282   1.083       .  S
C275        C276   1.207       .  T
C277        C278   1.207       .  T
C283        C284   1.401   1_455  A
C283        C288   1.402       .  A
C283        C291   1.441       .  S
C284        C285   1.399       .  A
C284        H293   1.083       .  S
C285        C286   1.401   1_655  A
C285        H294   1.083       .  S
C286        C287   1.402       .  A
C286        C289   1.440       .  S
C287        C288   1.400       .  A
C287        H295   1.084       .  S
C288        H296   1.083       .  S
C289        C290   1.206       .  T
C291        C292   1.207   1_455  T
C297        C298   1.401       .  A
C297        C302   1.402   1_655  A
C297        C305   1.440       .  S
C298        C299   1.399       .  A
C298        H307   1.083       .  S
C299        C300   1.401       .  A
C299        H308   1.083       .  S
C300        C301   1.402   1_655  A
C300        C303   1.441       .  S
C301        C302   1.400       .  A
C301        H309   1.083       .  S
C302        H310   1.084       .  S
C303        C304   1.207       .  T
C305        C306   1.207       .  T
C311        C312   1.402   1_455  A
C311        C316   1.401       .  A
C311        C319   1.440       .  S
C312        C313   1.399       .  A
C312        H321   1.083       .  S
C313        C314   1.401   1_655  A
C313        H322   1.084       .  S
C314        C315   1.401       .  A
C314        C317   1.439       .  S
C315        C316   1.399       .  A
C315        H323   1.084       .  S
C316        H324   1.083       .  S
C317        C318   1.206       .  T
C319        C320   1.206   1_455  T
