geometry optimzed in LAMMPS
_audit_creation_date              2020-11-30 
_audit_creation_method            'lammps2cif' 
_symmetry_space_group_name_H-M    'P1' 
_symmetry_Int_Tables_number       1 
_symmetry_cell_setting            triclinic 
loop_ 
_symmetry_equiv_pos_as_xyz 
  x,y,z 
_cell_length_a                    21.84687746 
_cell_length_b                    21.46508696548591 
_cell_length_c                    20.926806798618227 
_cell_angle_alpha                 77.3393186480915 
_cell_angle_beta                  89.81008389592381 
_cell_angle_gamma                 105.68486346679397 
loop_ 
_atom_site_label 
_atom_site_type_symbol 
_atom_site_fract_x 
_atom_site_fract_y 
_atom_site_fract_z 
_atom_site_charge 
N1          N  0.11311751  0.46471555  0.04084785    -0.35700
N2          N  0.11242573  0.60494635  0.00614272    -0.56300
N3          N  0.01911234  0.57949533  0.91431939    -0.35700
N4          N  0.01594415  0.43851473  0.94716532    -0.56300
C5          C  0.13031233  0.48394772  0.09713115     0.27900
C6          C  0.09102720  0.39762725  0.05649960     0.27900
C7          C  0.01694163  0.64123062  0.91757110     0.27900
C8          C  0.96905887  0.55367699  0.88151107     0.27900
C9          C  0.15610445  0.60529046  0.05125499     0.36500
C10         C  0.11166129  0.66832996  0.98265987     0.36500
C11         C  0.03577500  0.38290419  0.95630312     0.36500
C12         C  0.98688596  0.44248479  0.89013140     0.36500
C13         C  0.12097651  0.42788164  0.14830839    -0.21000
C14         C  0.09741535  0.37345610  0.12225144    -0.21000
C15         C  0.96545209  0.65519499  0.88447473    -0.21000
C16         C  0.93523303  0.59989558  0.86187755    -0.21000
C17         C  0.18535822  0.67020910  0.05498860    -0.22100
C18         C  0.15751789  0.71030068  0.01121125    -0.22100
C19         C  0.01960433  0.35175017  0.90494223    -0.22100
C20         C  0.98827745  0.38928333  0.86315961    -0.22100
C21         C  0.15008950  0.55054705  0.10418278    -0.17400
C22         C  0.06392953  0.35777836  0.01312891    -0.17400
C23         C  0.95761184  0.49249746  0.86274224    -0.17400
C24         C  0.06190404  0.68611158  0.94693509    -0.17400
H25         H  0.12921693  0.42550087  0.19950983     0.15500
H26         H  0.08346787  0.32211254  0.14930825     0.15500
H27         H  0.95178500  0.70100022  0.87557495     0.15500
H28         H  0.89398903  0.59487819  0.83286843     0.15500
H29         H  0.21798543  0.68606168  0.09087155     0.13800
H30         H  0.16604770  0.76330920  0.00578294     0.13800
H31         H  0.02935088  0.30675319  0.89809867     0.13800
H32         H  0.96925364  0.37881458  0.81776287     0.13800
H33         H  0.11720651  0.49513442  0.99394041     0.27000
H34         H  0.05622725  0.55847200  0.92656232     0.27000
N35         N  0.96795299  0.56082553  0.41922041    -0.35700
N36         N  0.98336237  0.42604870  0.44302337    -0.56300
N37         N  0.88754701  0.38121915  0.55226613    -0.35700
N38         N  0.87701634  0.51880563  0.52629609    -0.56300
C39         C  0.02086975  0.57118899  0.38066220     0.27900
C40         C  0.96405617  0.62101655  0.42585776     0.27900
C41         C  0.91343973  0.32970035  0.56025724     0.27900
C42         C  0.86999170  0.38536572  0.61291015     0.27900
C43         C  0.01404683  0.45308090  0.38306422     0.36500
C44         C  0.97091734  0.35943211  0.45128347     0.36500
C45         C  0.86984224  0.58023371  0.50549309     0.36500
C46         C  0.83575103  0.48771817  0.57864058     0.36500
C47         C  0.05060809  0.63871139  0.36118117    -0.21000
C48         C  0.01449731  0.67026101  0.38916483    -0.21000
C49         C  0.90833972  0.29782882  0.62595084    -0.21000
C50         C  0.88216934  0.33387133  0.65944434    -0.21000
C51         C  0.02090160  0.40346389  0.35317572    -0.22100
C52         C  0.99357113  0.34411333  0.39646771    -0.22100
C53         C  0.82169918  0.58788631  0.54384182    -0.22100
C54         C  0.80077320  0.52947024  0.59078566    -0.22100
C55         C  0.03833721  0.52200353  0.35605442    -0.17400
C56         C  0.91457483  0.63220405  0.46189468    -0.17400
C57         C  0.84777068  0.43708612  0.62752505    -0.17400
C58         C  0.94455521  0.31297437  0.51017266    -0.17400
H59         H  0.09289620  0.66284452  0.32847788     0.15500
H60         H  0.02407540  0.72353830  0.38158793     0.15500
H61         H  0.92531220  0.25554703  0.64783134     0.15500
H62         H  0.87416348  0.32369282  0.71218220     0.15500
H63         H  0.04337893  0.40926236  0.30525631     0.13800
H64         H  0.99114819  0.29533353  0.38864863     0.13800
H65         H  0.80736704  0.63264079  0.54226755     0.13800
H66         H  0.76837320  0.52097913  0.63304988     0.13800
H67         H  0.93271621  0.51593064  0.43248554     0.27000
H68         H  0.88208707  0.41142812  0.50763596     0.27000
O69         O  0.85479772  0.97080999  0.94385373    -0.80000
O70         O  0.13600206  0.98216162  0.96370720    -0.64700
O71         O  0.95909547  0.94465107  0.01095663    -1.11300
C72         C  0.02100696  0.16830645  0.03156377     1.06900
O73         O  0.16009665  0.02093994  0.05315945    -0.77900
O74         O  0.06954045  0.03951344  0.13411537    -0.65500
Ni75       Ni  0.89622134  0.90059513  0.96087692     1.34900
C76         C  0.01070485  0.01584698  0.15275708     0.85600
O77         O  0.03849233  0.87252072  0.97492336    -0.78400
O78         O  0.93264087  0.82694042  0.97508960    -0.88700
C79         C  0.17615335  0.00059998  0.00433144     0.85200
O80         O  0.93821792  0.93428337  0.87459900    -0.66900
O81         O  0.07438541  0.15739989  0.04701132    -0.86200
C82         C  0.99347092  0.97062692  0.85249381     0.86000
C83         C  0.99002908  0.82342197  0.97467769     1.07600
H84         H  0.06167011  0.07898017  0.95182527     0.39400
O85         O  0.05187233  0.04883234  0.99455173    -1.08900
O86         O  0.96670474  0.01078410  0.11230864    -0.65500
Ni87       Ni  0.96353404  0.03363255  0.01642240     1.26300
O88         O  0.03766976  0.98922946  0.88984330    -0.65700
O89         O  0.97311056  0.12455505  0.01865772    -0.78000
C90         C  0.83640927  0.99737221  0.98623486     0.85400
O91         O  0.87265839  0.01554691  0.03027982    -0.65200
Ni92       Ni  0.11321859  0.08634527  0.04998473     1.27400
Ni93       Ni  0.04656086  0.96148589  0.98405911     1.26100
H94         H  0.95230086  0.91705622  0.05493201     0.39900
O95         O  0.83422982  0.97448609  0.46462174    -0.80000
O96         O  0.11348144  0.96062011  0.46464829    -0.64700
O97         O  0.94064996  0.93808891  0.51616219    -1.11300
C98         C  0.01683892  0.16628168  0.52345588     1.06900
O99         O  0.14690453  0.01325920  0.54381631    -0.77900
O100        O  0.07312310  0.05302963  0.62234472    -0.65500
Ni101      Ni  0.87306043  0.90332423  0.46529365     1.34900
C102        C  0.01834276  0.02032947  0.64938790     0.85600
O103        O  0.00898093  0.85568182  0.48692610    -0.78400
O104        O  0.90503504  0.82803988  0.46563243    -0.88700
C105        C  0.15675647  0.98254228  0.50086893     0.85200
O106        O  0.91143192  0.94545274  0.37789159    -0.66900
O107        O  0.07322982  0.15996580  0.52193972    -0.86200
C108        C  0.96919976  0.96517912  0.35519555     0.86000
C109        C  0.95796842  0.81415418  0.47648792     1.07600
H110        H  0.04105380  0.06520485  0.44524171     0.39400
O111        O  0.03720030  0.03928729  0.48978371    -1.08900
O112        O  0.96989025  0.00324389  0.61652609    -0.65500
Ni113      Ni  0.95303631  0.02722769  0.52405237     1.26300
O114        O  0.01571871  0.96848513  0.39235597    -0.65700
O115        O  0.96672251  0.11796146  0.52842808    -0.78000
C116        C  0.82302284  0.99469141  0.51528845     0.85400
O117        O  0.86658467  0.01077761  0.55321573    -0.65200
Ni118      Ni  0.10688333  0.08431825  0.53244561     1.27400
Ni119      Ni  0.02564621  0.94805556  0.48702645     1.26100
H120        H  0.93263515  0.90913155  0.55958728     0.39900
N121        N  0.56611606  0.97064169  0.07758491    -0.35700
N122        N  0.42981054  0.96487785  0.07512891    -0.56300
N123        N  0.45976337  0.06815038  0.95632717    -0.35700
N124        N  0.59479054  0.06790572  0.96024281    -0.56300
C125        C  0.53751674  0.91240675  0.11958996     0.27900
C126        C  0.62639671  0.97001273  0.06345839     0.27900
C127        C  0.39514315  0.04915257  0.96005836     0.27900
C128        C  0.47968174  0.09096811  0.89210826     0.27900
C129        C  0.43357544  0.93316756  0.13762117     0.36500
C130        C  0.37887706  0.98929180  0.07555292     0.36500
C131        C  0.65570677  0.07082502  0.97428026     0.36500
C132        C  0.59697258  0.11406428  0.90461929     0.36500
C133        C  0.57979800  0.87389122  0.13189191    -0.21000
C134        C  0.63611891  0.91041542  0.09649763    -0.21000
C135        C  0.37343122  0.06209493  0.89794221    -0.21000
C136        C  0.42662340  0.08684997  0.85489702    -0.21000
C137        C  0.38444304  0.93720139  0.17746895    -0.22100
C138        C  0.34933541  0.97201985  0.13790972    -0.22100
C139        C  0.69724353  0.12052437  0.92795926    -0.22100
C140        C  0.65992606  0.14722535  0.88311104    -0.22100
C141        C  0.48120216  0.90121203  0.15856758    -0.17400
C142        C  0.67304361  0.02285234  0.02297387    -0.17400
C143        C  0.54419115  0.11623444  0.86639064    -0.17400
C144        C  0.35636816  0.02242822  0.01901351    -0.17400
H145        H  0.57182131  0.82609516  0.16588638     0.15500
H146        H  0.67951462  0.89531927  0.09601881     0.15500
H147        H  0.32458786  0.05317508  0.88455162     0.15500
H148        H  0.42561397  0.10044474  0.80214513     0.15500
H149        H  0.37475124  0.91809967  0.22966555     0.13800
H150        H  0.30727245  0.98370819  0.15343323     0.13800
H151        H  0.74875664  0.13328023  0.92439777     0.13800
H152        H  0.67699360  0.18439775  0.83804374     0.13800
H153        H  0.54880446  0.01222002  0.06820358     0.27000
H154        H  0.48834409  0.06967035  0.99598012     0.27000
N155        N  0.53596875  0.93432986  0.48534442    -0.35700
N156        N  0.40263256  0.93468553  0.48446996    -0.56300
N157        N  0.44315247  0.05262457  0.54191991    -0.35700
N158        N  0.57416154  0.04290096  0.54231983    -0.56300
C159        C  0.50498878  0.87607360  0.47133339     0.27900
C160        C  0.59553159  0.93173308  0.49972008     0.27900
C161        C  0.37909981  0.03111225  0.55316866     0.27900
C162        C  0.46672198  0.08071530  0.59186055     0.27900
C163        C  0.40771365  0.90488377  0.43490853     0.36500
C164        C  0.35612976  0.96515661  0.47009179     0.36500
C165        C  0.63274968  0.04304115  0.52209006     0.36500
C166        C  0.57982808  0.10063193  0.55966001     0.36500
C167        C  0.54470466  0.83464819  0.47898935    -0.21000
C168        C  0.60198702  0.86976522  0.49727732    -0.21000
C169        C  0.36138783  0.04659611  0.61004312    -0.21000
C170        C  0.41676266  0.07699282  0.63511141    -0.21000
C171        C  0.36368016  0.91615161  0.38923040    -0.22100
C172        C  0.33087969  0.95425123  0.41169834    -0.22100
C173        C  0.67654728  0.10229759  0.52584814    -0.22100
C174        C  0.64296736  0.13813610  0.55152359    -0.22100
C175        C  0.45461375  0.87154447  0.42952944    -0.17400
C176        C  0.64559555  0.98722209  0.50571446    -0.17400
C177        C  0.53215051  0.10957707  0.59865158    -0.17400
C178        C  0.33668840  0.00154220  0.51075532    -0.17400
H179        H  0.53550660  0.78707819  0.46581734     0.15500
H180        H  0.64471601  0.85332809  0.50343809     0.15500
H181        H  0.31362995  0.03593363  0.63187310     0.15500
H182        H  0.41937405  0.09426986  0.68006250     0.15500
H183        H  0.35640168  0.90026765  0.34373814     0.13800
H184        H  0.29447193  0.97372692  0.38654187     0.13800
H185        H  0.72737555  0.11736955  0.51388172     0.13800
H186        H  0.66276740  0.18502172  0.56511177     0.13800
H187        H  0.52182925  0.97766955  0.47105777     0.27000
H188        H  0.46870064  0.05196190  0.50000011     0.27000
C189        C  0.57852233  0.08185678  0.77107657    -0.12500
C190        C  0.55658855  0.12866285  0.79466542     0.09700
C191        C  0.53786797  0.17852907  0.75043853    -0.13900
C192        C  0.53483014  0.17690352  0.68393667    -0.12500
C193        C  0.55105128  0.12574891  0.66200393     0.09700
C194        C  0.57592729  0.08050591  0.70535909    -0.12500
H195        H  0.59288719  0.04291151  0.80456144     0.13700
H196        H  0.52086866  0.21497289  0.76823648     0.13700
H197        H  0.51537833  0.21199495  0.65090961     0.13700
H198        H  0.58825857  0.04040777  0.68944514     0.13700
C199        C  0.43014121  0.82442712  0.26604972    -0.12500
C200        C  0.48242599  0.87305045  0.22949562     0.09700
C201        C  0.53175656  0.90683942  0.26223048    -0.12500
C202        C  0.52477872  0.90006893  0.32911170    -0.12500
C203        C  0.46838050  0.85912332  0.36485857     0.09700
C204        C  0.42299336  0.81758946  0.33403055    -0.12500
H205        H  0.39193785  0.79745799  0.24130795     0.13700
H206        H  0.57263720  0.94439365  0.23522286     0.13700
H207        H  0.56079040  0.93252710  0.35150768     0.13700
H208        H  0.37957696  0.78512622  0.36112158     0.13700
C209        C  0.21907976  0.96944312  0.49560525    -0.15500
C210        C  0.27195440  0.01199130  0.50986312    -0.30700
H211        H  0.22099329  0.92468939  0.48065202     0.13500
H212        H  0.26715196  0.05595747  0.52484527     0.14000
C213        C  0.75938649  0.00155471  0.52952090    -0.15500
C214        C  0.71162157  0.98602073  0.49065870    -0.30700
H215        H  0.75099958  0.01710282  0.57402135     0.13500
H216        H  0.71961817  0.96681668  0.44837069     0.14000
C217        C  0.24175590  0.99525270  0.99598251    -0.15500
C218        C  0.29095654  0.03035979  0.02339676    -0.30700
H219        H  0.25013403  0.96291081  0.96561663     0.13500
H220        H  0.28257188  0.06227092  0.05424662     0.14000
C221        C  0.74110395  0.02271515  0.02810967    -0.15500
C222        C  0.77242305  0.00835773  0.98051784    -0.30700
H223        H  0.76244686  0.02617329  0.07446738     0.13500
H224        H  0.74807448  0.99985886  0.93666547     0.14000
C225        C  0.00558544  0.99027749  0.78113374    -0.12400
C226        C  0.01117871  0.00310006  0.72116998    -0.13900
C227        C  0.98243965  0.98287806  0.28352768    -0.12400
C228        C  0.99360765  0.99599208  0.22381700    -0.13900
C229        C  0.96041118  0.74604404  0.47749164    -0.15500
C230        C  0.91219147  0.70130885  0.45853292    -0.30700
H231        H  0.00295980  0.73211268  0.49413764     0.13500
H232        H  0.86845722  0.71382155  0.44422734     0.14000
C233        C  0.00959255  0.23369914  0.51708016    -0.15500
C234        C  0.95217150  0.24476111  0.52195325    -0.30700
H235        H  0.05214725  0.27558417  0.50593738     0.13500
H236        H  0.90972396  0.20326550  0.53693033     0.14000
C237        C  0.94944122  0.52269693  0.74339086    -0.12500
C238        C  0.92111786  0.48463737  0.80450644     0.09700
C239        C  0.86355145  0.43443091  0.80835382    -0.12500
C240        C  0.83625024  0.42050902  0.75078334    -0.12500
C241        C  0.86699306  0.45643409  0.68960281     0.09700
C242        C  0.92277654  0.50858404  0.68648035    -0.12500
H243        H  0.99425178  0.56087505  0.73980666     0.13700
H244        H  0.84166802  0.40435486  0.85558722     0.13700
H245        H  0.79338593  0.37998567  0.75381498     0.13700
H246        H  0.94759045  0.53629109  0.63966078     0.13700
C247        C  0.16583154  0.54210667  0.22483919    -0.12500
C248        C  0.13413445  0.56122111  0.16886623     0.09700
C249        C  0.07727578  0.57852620  0.17559196    -0.12500
C250        C  0.04873433  0.56983154  0.23719433    -0.12500
C251        C  0.07657668  0.54374912  0.29303609     0.09700
C252        C  0.13662334  0.53269226  0.28714649    -0.12500
H253        H  0.20980179  0.52883133  0.22025870     0.13700
H254        H  0.05198220  0.59328297  0.13299812     0.13700
H255        H  0.00256589  0.57888098  0.24120408     0.13700
H256        H  0.15863776  0.51300212  0.33034615     0.13700
C257        C  0.05330205  0.75262259  0.94641952    -0.15500
C258        C  0.99991826  0.75853345  0.97360370    -0.30700
H259        H  0.09268606  0.79651124  0.92749813     0.13500
H260        H  0.96097775  0.71429792  0.99294339     0.14000
C261        C  0.06587923  0.28736085  0.02890930    -0.15500
C262        C  0.01520458  0.23626524  0.02533773    -0.30700
H263        H  0.11063254  0.27790488  0.04424195     0.13500
H264        H  0.96976833  0.24555314  0.01267935     0.14000
loop_ 
_geom_bond_atom_site_label_1 
_geom_bond_atom_site_label_2 
_geom_bond_distance 
_geom_bond_site_symmetry_2 
_ccdc_geom_bond_type 
N1            C6   1.353       .  A
N1            C5   1.353       .  A
N1           H33   1.042   1_554  S
N2            C9   1.344       .  A
N2           C10   1.346   1_554  A
N3            C8   1.348   1_455  A
N3            C7   1.355       .  A
N3           H34   1.037       .  S
N4           C11   1.353       .  A
N4           C12   1.351   1_455  A
C5           C13   1.392       .  A
C5           C21   1.418       .  A
C6           C22   1.406       .  A
C6           C14   1.382       .  A
C7           C15   1.390   1_455  A
C7           C24   1.422       .  A
C8           C23   1.411       .  A
C8           C16   1.385       .  A
C9           C21   1.404       .  A
C9           C17   1.387       .  A
C10          C24   1.411       .  A
C10          C18   1.387   1_556  A
C11          C19   1.385       .  A
C11          C22   1.409   1_556  A
C12          C20   1.387       .  A
C12          C23   1.412       .  A
C13          C14   1.372       .  A
C13          H25   1.080       .  S
C14          H26   1.082       .  S
C15          C16   1.376       .  A
C15          H27   1.081       .  S
C16          H28   1.083       .  S
C17          C18   1.375       .  A
C17          H29   1.083       .  S
C18          H30   1.082       .  S
C19          C20   1.369   1_455  A
C19          H31   1.082       .  S
C20          H32   1.082       .  S
C21         C248   1.477       .  S
C22         C261   1.487       .  S
C23         C238   1.474       .  S
C24         C257   1.487       .  S
N35          C40   1.354       .  A
N35          C39   1.347   1_655  A
N35          H67   1.039       .  S
N36          C43   1.351   1_655  A
N36          C44   1.353       .  A
N37          C42   1.353       .  A
N37          C41   1.352       .  A
N37          H68   1.041       .  S
N38          C45   1.347       .  A
N38          C46   1.344       .  A
C39          C47   1.385       .  A
C39          C55   1.407       .  A
C40          C56   1.418       .  A
C40          C48   1.389   1_655  A
C41          C49   1.384       .  A
C41          C58   1.408       .  A
C42          C57   1.415       .  A
C42          C50   1.389       .  A
C43          C55   1.413       .  A
C43          C51   1.388       .  A
C44          C58   1.411       .  A
C44          C52   1.385       .  A
C45          C53   1.387       .  A
C45          C56   1.411       .  A
C46          C54   1.386       .  A
C46          C57   1.402       .  A
C47          C48   1.372       .  A
C47          H59   1.083       .  S
C48          H60   1.081       .  S
C49          C50   1.375       .  A
C49          H61   1.082       .  S
C50          H62   1.081       .  S
C51          C52   1.371   1_455  A
C51          H63   1.082       .  S
C52          H64   1.082       .  S
C53          C54   1.376       .  A
C53          H65   1.082       .  S
C54          H66   1.083       .  S
C55         C251   1.472       .  S
C56         C230   1.485       .  S
C57         C241   1.477       .  S
C58         C234   1.485       .  S
O69         Ni75   1.929       .  S
O69          C90   1.271       .  A
O70         Ni93   1.908       .  S
O70          C79   1.270   1_566  A
O71         Ni75   1.903   1_554  S
O71         Ni93   1.905   1_654  S
O71         Ni87   1.915   1_565  S
O71          H94   0.966       .  S
C72         C262   1.476       .  S
C72          O89   1.277   1_455  A
C72          O81   1.279       .  A
O73         Ni92   1.939       .  S
O73          C79   1.278       .  A
O74         Ni92   1.927       .  S
O74          C76   1.272       .  A
Ni75         O78   1.923       .  S
Ni75         O80   1.919       .  S
C76          O86   1.281   1_455  A
C76         C228   1.471   1_445  S
O77         Ni93   1.922       .  S
O77          C83   1.277   1_455  A
O78          C83   1.276       .  A
C79         C217   1.481   1_544  S
O80          C82   1.268       .  A
O81         Ni92   1.926       .  S
C82          O88   1.279   1_655  A
C82         C225   1.463   1_655  S
C83         C258   1.471       .  S
H84          O85   0.967       .  S
O85         Ni93   1.908   1_545  S
O85         Ni87   1.905   1_456  S
O85         Ni92   1.904   1_556  S
O86         Ni87   1.965       .  S
Ni87         O91   1.925       .  S
Ni87         O89   1.917       .  S
O88         Ni93   1.957       .  S
C90         C222   1.480   1_565  S
C90          O91   1.274   1_566  A
O95        Ni101   1.935       .  S
O95         C116   1.277       .  A
O96        Ni119   1.906       .  S
O96         C105   1.269       .  A
O97        Ni101   1.906       .  S
O97        Ni119   1.894   1_655  S
O97        Ni113   1.903   1_565  S
O97         H120   0.967       .  S
C98         C233   1.475       .  S
C98         O115   1.274   1_455  A
C98         O107   1.276       .  A
O99        Ni118   1.926       .  S
O99         C105   1.274   1_545  A
O100       Ni118   1.924       .  S
O100        C102   1.270       .  A
Ni101       O104   1.925       .  S
Ni101       O106   1.929       .  S
C102        O112   1.278   1_455  A
C102        C226   1.463       .  S
O103       Ni119   1.917       .  S
O103        C109   1.278   1_455  A
O104        C109   1.279       .  A
C105        C209   1.471       .  S
O106        C108   1.271       .  A
O107       Ni118   1.928       .  S
C108        O114   1.278   1_655  A
C108        C227   1.471       .  S
C109        C229   1.473       .  S
H110        O111   0.966       .  S
O111       Ni119   1.919   1_545  S
O111       Ni113   1.901   1_455  S
O111       Ni118   1.908       .  S
O112       Ni113   1.953       .  S
Ni113       O117   1.898       .  S
Ni113       O115   1.912       .  S
O114       Ni119   1.959       .  S
C116        C213   1.473   1_565  S
C116        O117   1.266   1_565  A
N121        C126   1.353       .  A
N121        C125   1.348       .  A
N121        H153   1.041   1_565  S
N122        C129   1.349       .  A
N122        C130   1.353       .  A
N123        C128   1.352       .  A
N123        C127   1.356       .  A
N123        H154   1.041       .  S
N124        C131   1.352       .  A
N124        C132   1.344       .  A
C125        C133   1.387       .  A
C125        C141   1.409       .  A
C126        C142   1.411   1_565  A
C126        C134   1.386       .  A
C127        C135   1.382       .  A
C127        C144   1.410   1_556  A
C128        C143   1.423       .  A
C128        C136   1.392       .  A
C129        C141   1.415       .  A
C129        C137   1.390       .  A
C130        C144   1.404   1_565  A
C130        C138   1.382       .  A
C131        C139   1.385       .  A
C131        C142   1.413   1_556  A
C132        C140   1.388       .  A
C132        C143   1.411       .  A
C133        C134   1.377       .  A
C133        H145   1.082       .  S
C134        H146   1.082       .  S
C135        C136   1.376       .  A
C135        H147   1.081       .  S
C136        H148   1.080       .  S
C137        C138   1.369       .  A
C137        H149   1.078       .  S
C138        H150   1.082       .  S
C139        C140   1.377       .  A
C139        H151   1.082       .  S
C140        H152   1.083       .  S
C141        C200   1.478       .  S
C142        C221   1.492       .  S
C143        C190   1.477       .  S
C144        C218   1.489       .  S
N155        C160   1.350       .  A
N155        C159   1.346       .  A
N155        H187   1.041       .  S
N156        C163   1.351       .  A
N156        C164   1.351       .  A
N157        C162   1.354       .  A
N157        C161   1.352       .  A
N157        H188   1.043       .  S
N158        C165   1.346       .  A
N158        C166   1.341       .  A
C159        C167   1.387       .  A
C159        C175   1.404       .  A
C160        C176   1.412       .  A
C160        C168   1.387       .  A
C161        C169   1.384       .  A
C161        C178   1.408       .  A
C162        C177   1.417       .  A
C162        C170   1.390       .  A
C163        C175   1.416       .  A
C163        C171   1.389       .  A
C164        C178   1.408   1_565  A
C164        C172   1.383       .  A
C165        C173   1.388       .  A
C165        C176   1.412   1_545  A
C166        C174   1.385       .  A
C166        C177   1.400       .  A
C167        C168   1.379       .  A
C167        H179   1.082       .  S
C168        H180   1.082       .  S
C169        C170   1.375       .  A
C169        H181   1.082       .  S
C170        H182   1.081       .  S
C171        C172   1.374       .  A
C171        H183   1.078       .  S
C172        H184   1.082       .  S
C173        C174   1.379       .  A
C173        H185   1.081       .  S
C174        H186   1.082       .  S
C175        C203   1.481       .  S
C176        C214   1.484       .  S
C177        C193   1.475       .  S
C178        C210   1.490       .  S
C189        C190   1.400       .  A
C189        C194   1.383       .  A
C189        H195   1.084       .  S
C190        C191   1.405       .  A
C191        C192   1.401       .  A
C191        H196   1.083       .  S
C192        C193   1.404       .  A
C192        H197   1.083       .  S
C193        C194   1.401       .  A
C194        H198   1.084       .  S
C199        C200   1.407       .  A
C199        C204   1.402       .  A
C199        H205   1.083       .  S
C200        C201   1.399       .  A
C201        C202   1.379       .  A
C201        H206   1.084       .  S
C202        C203   1.404       .  A
C202        H207   1.083       .  S
C203        C204   1.404       .  A
C204        H208   1.083       .  S
C209        C210   1.345   1_565  D
C209        H211   1.084       .  S
C210        H212   1.088       .  S
C213        C214   1.341   1_545  D
C213        H215   1.086       .  S
C214        H216   1.087       .  S
C217        C218   1.345   1_566  D
C217        H219   1.087       .  S
C218        H220   1.086       .  S
C221        C222   1.341   1_554  D
C221        H223   1.086       .  S
C222        H224   1.087   1_545  S
C225        C226   1.223   1_565  T
C227        C228   1.228       .  T
C229        C230   1.346       .  D
C229        H231   1.087   1_655  S
C230        H232   1.086       .  S
C233        C234   1.346   1_455  D
C233        H235   1.087       .  S
C234        H236   1.087       .  S
C237        C238   1.396       .  A
C237        C242   1.384       .  A
C237        H243   1.084       .  S
C238        C239   1.406       .  A
C239        C240   1.401       .  A
C239        H244   1.083       .  S
C240        C241   1.402       .  A
C240        H245   1.083       .  S
C241        C242   1.404       .  A
C242        H246   1.084       .  S
C247        C248   1.403       .  A
C247        C252   1.399       .  A
C247        H253   1.083       .  S
C248        C249   1.404       .  A
C249        C250   1.383       .  A
C249        H254   1.084       .  S
C250        C251   1.397       .  A
C250        H255   1.084       .  S
C251        C252   1.404       .  A
C252        H256   1.083       .  S
C257        C258   1.344   1_455  D
C257        H259   1.087       .  S
C258        H260   1.087       .  S
C261        C262   1.347       .  D
C261        H263   1.087       .  S
C262        H264   1.087   1_455  S
