geometry optimzed in LAMMPS
_audit_creation_date              2020-11-30 
_audit_creation_method            'lammps2cif' 
_symmetry_space_group_name_H-M    'P1' 
_symmetry_Int_Tables_number       1 
_symmetry_cell_setting            triclinic 
loop_ 
_symmetry_equiv_pos_as_xyz 
  x,y,z 
_cell_length_a                    23.359814850226442 
_cell_length_b                    23.35981499593834 
_cell_length_c                    18.873106266698105 
_cell_angle_alpha                 90.00001358874134 
_cell_angle_beta                  89.99998129538156 
_cell_angle_gamma                 90.03350219098536 
loop_ 
_atom_site_label 
_atom_site_type_symbol 
_atom_site_fract_x 
_atom_site_fract_y 
_atom_site_fract_z 
_atom_site_charge 
C1          C  0.50000090  0.99999864  0.46424817     0.05240
C2          C  0.50000090  0.99999864  0.03575204     0.05240
C3          C  0.50000358  0.21257527  0.25000016     0.07810
C4          C  0.50000305  0.18254744  0.31458649    -0.08340
C5          C  0.50000068  0.12259734  0.31435743     0.05310
C6          C  0.49999902  0.09316695  0.25000014    -0.06870
C7          C  0.50000068  0.12259733  0.18564287     0.07800
C8          C  0.50000305  0.18254743  0.18541382    -0.06290
H9          H  0.50000333  0.20561882  0.36443338     0.13390
H10         H  0.49999655  0.04698939  0.25000013     0.10920
H11         H  0.50000333  0.20561881  0.13556694     0.10770
C12         C  0.49999987  0.78742201  0.25000003     0.07810
C13         C  0.49999992  0.81744984  0.31458638    -0.08340
C14         C  0.50000141  0.87739994  0.31435736     0.05310
C15         C  0.50000261  0.90683033  0.25000009    -0.06870
C16         C  0.50000140  0.87739995  0.18564280     0.07780
C17         C  0.49999992  0.81744986  0.18541371    -0.06290
H18         H  0.50000006  0.79437845  0.36443326     0.13390
H19         H  0.50000444  0.95300789  0.25000011     0.10920
H20         H  0.50000006  0.79437848  0.13556681     0.10770
C21         C  0.00000332  0.49999787  0.46424796     0.05240
C22         C  0.00000331  0.49999787  0.03575184     0.05240
C23         C  0.21257996  0.49999918  0.24999983     0.07810
C24         C  0.18255212  0.49999874  0.31458617    -0.08340
C25         C  0.12260203  0.49999644  0.31435713     0.05310
C26         C  0.09317164  0.49999470  0.24999986    -0.06870
C27         C  0.12260203  0.49999644  0.18564257     0.07800
C28         C  0.18255213  0.49999874  0.18541350    -0.06290
H29         H  0.20562350  0.49999906  0.36443305     0.13390
H30         H  0.04699408  0.49999220  0.24999988     0.10920
H31         H  0.20562352  0.49999905  0.13556661     0.10770
C32         C  0.78742665  0.49999714  0.25000000     0.07810
C33         C  0.81745450  0.49999742  0.31458632    -0.08340
C34         C  0.87740460  0.49999941  0.31435723     0.05310
C35         C  0.90683498  0.50000098  0.24999993    -0.06870
C36         C  0.87740459  0.49999941  0.18564266     0.07800
C37         C  0.81745448  0.49999742  0.18541365    -0.06290
H38         H  0.79438313  0.49999725  0.36443322     0.13390
H39         H  0.95301254  0.50000326  0.24999990     0.10920
H40         H  0.79438309  0.49999725  0.13556678     0.10770
O41         O  0.49998317  0.41405035  0.30889540    -0.68270
O42         O  0.50002320  0.58594697  0.30889531    -0.69250
O43         O  0.41405493  0.49997837  0.30889528    -0.57870
O44         O  0.58595155  0.50001892  0.30889539    -0.66280
O45         O  0.58595162  0.50001886  0.19110473    -0.65830
O46         O  0.41405502  0.49997832  0.19110462    -0.57080
O47         O  0.50002328  0.58594692  0.19110465    -0.69590
O48         O  0.49998325  0.41405029  0.19110473    -0.68370
Cu49       Cu  0.50000323  0.49999866  0.31305230     1.04560
Cu50       Cu  0.50000331  0.49999860  0.18694773     1.04330
C51         C  0.49998401  0.38719436  0.25000008     0.97930
C52         C  0.50002223  0.61280290  0.24999997     0.97070
C53         C  0.38719902  0.49997915  0.24999993     0.89220
C54         C  0.61280754  0.50001803  0.25000007     0.95490
C55         C  0.72582099  0.50000186  0.25000005    -0.08600
C56         C  0.67421346  0.50001077  0.25000009    -0.10150
C57         C  0.32579312  0.49998620  0.24999987    -0.08600
C58         C  0.27418560  0.49999483  0.24999983    -0.10150
C59         C  0.05241641  0.49999656  0.07669645    -0.08600
C60         C  0.08950767  0.49999607  0.12121226    -0.10150
C61         C  0.05241642  0.49999656  0.42330332    -0.08600
C62         C  0.08950766  0.49999607  0.37878747    -0.10150
C63         C  0.91049895  0.49999971  0.12121232    -0.08600
C64         C  0.94759021  0.49999919  0.07669648    -0.10150
C65         C  0.94759023  0.49999919  0.42330335    -0.08600
C66         C  0.91049898  0.49999971  0.37878753    -0.10150
C67         C  0.50001457  0.67420882  0.24999997    -0.08600
C68         C  0.50000520  0.72581635  0.25000000    -0.10150
C69         C  0.49999941  0.27418092  0.25000016    -0.08600
C70         C  0.49999097  0.32578845  0.25000012    -0.10150
C71         C  0.50000005  0.05241174  0.07669668    -0.08600
C72         C  0.49999995  0.08950297  0.12121254    -0.10150
C73         C  0.49999995  0.08950298  0.37878774    -0.08600
C74         C  0.50000005  0.05241173  0.42330356    -0.10150
C75         C  0.50000177  0.94758555  0.07669666    -0.08600
C76         C  0.50000195  0.91049432  0.12121249    -0.10150
C77         C  0.50000195  0.91049430  0.37878769    -0.08600
C78         C  0.50000177  0.94758554  0.42330353    -0.10150
C79         C  0.50000090  0.99999864  0.96424817     0.05240
C80         C  0.50000090  0.99999864  0.53575204     0.05240
C81         C  0.50000358  0.21257527  0.75000016     0.07810
C82         C  0.50000305  0.18254744  0.81458649    -0.08340
C83         C  0.50000068  0.12259734  0.81435742     0.05310
C84         C  0.49999902  0.09316695  0.75000014    -0.06870
C85         C  0.50000068  0.12259733  0.68564287     0.07800
C86         C  0.50000305  0.18254743  0.68541382    -0.06290
H87         H  0.50000334  0.20561882  0.86443338     0.13390
H88         H  0.49999655  0.04698939  0.75000013     0.10920
H89         H  0.50000333  0.20561881  0.63556694     0.10770
C90         C  0.49999987  0.78742201  0.75000003     0.07810
C91         C  0.49999993  0.81744984  0.81458638    -0.08340
C92         C  0.50000141  0.87739994  0.81435736     0.05310
C93         C  0.50000261  0.90683033  0.75000009    -0.06870
C94         C  0.50000140  0.87739995  0.68564280     0.07780
C95         C  0.49999992  0.81744986  0.68541371    -0.06290
H96         H  0.50000007  0.79437845  0.86443326     0.13390
H97         H  0.50000444  0.95300789  0.75000011     0.10920
H98         H  0.50000006  0.79437848  0.63556681     0.10770
C99         C  0.00000332  0.49999787  0.96424796     0.05240
C100        C  0.00000332  0.49999787  0.53575184     0.05240
C101        C  0.21257996  0.49999918  0.74999983     0.07810
C102        C  0.18255212  0.49999874  0.81458617    -0.08340
C103        C  0.12260203  0.49999645  0.81435713     0.05310
C104        C  0.09317164  0.49999470  0.74999986    -0.06870
C105        C  0.12260203  0.49999644  0.68564257     0.07800
C106        C  0.18255213  0.49999874  0.68541350    -0.06290
H107        H  0.20562350  0.49999906  0.86443305     0.13390
H108        H  0.04699408  0.49999220  0.74999988     0.10920
H109        H  0.20562352  0.49999906  0.63556661     0.10770
C110        C  0.78742665  0.49999714  0.75000000     0.07810
C111        C  0.81745450  0.49999742  0.81458632    -0.08340
C112        C  0.87740460  0.49999941  0.81435723     0.05310
C113        C  0.90683498  0.50000098  0.74999993    -0.06870
C114        C  0.87740459  0.49999941  0.68564266     0.07800
C115        C  0.81745448  0.49999742  0.68541365    -0.06290
H116        H  0.79438313  0.49999725  0.86443322     0.13390
H117        H  0.95301254  0.50000326  0.74999990     0.10920
H118        H  0.79438309  0.49999725  0.63556677     0.10770
O119        O  0.49998317  0.41405035  0.80889539    -0.68270
O120        O  0.50002320  0.58594697  0.80889531    -0.69250
O121        O  0.41405493  0.49997837  0.80889528    -0.57870
O122        O  0.58595155  0.50001892  0.80889539    -0.66280
O123        O  0.58595162  0.50001886  0.69110473    -0.65830
O124        O  0.41405502  0.49997832  0.69110461    -0.57080
O125        O  0.50002328  0.58594692  0.69110465    -0.69590
O126        O  0.49998325  0.41405028  0.69110473    -0.68370
Cu127      Cu  0.50000323  0.49999866  0.81305230     1.04560
Cu128      Cu  0.50000331  0.49999860  0.68694772     1.04330
C129        C  0.49998402  0.38719436  0.75000008     0.97930
C130        C  0.50002224  0.61280290  0.74999997     0.97070
C131        C  0.38719903  0.49997915  0.74999992     0.89220
C132        C  0.61280755  0.50001803  0.75000007     0.95490
C133        C  0.72582099  0.50000186  0.75000005    -0.08600
C134        C  0.67421347  0.50001077  0.75000009    -0.10150
C135        C  0.32579312  0.49998620  0.74999987    -0.08600
C136        C  0.27418561  0.49999483  0.74999983    -0.10150
C137        C  0.05241641  0.49999656  0.57669645    -0.08600
C138        C  0.08950767  0.49999607  0.62121226    -0.10150
C139        C  0.05241642  0.49999656  0.92330332    -0.08600
C140        C  0.08950766  0.49999607  0.87878747    -0.10150
C141        C  0.91049895  0.49999971  0.62121232    -0.08600
C142        C  0.94759021  0.49999919  0.57669648    -0.10150
C143        C  0.94759023  0.49999920  0.92330335    -0.08600
C144        C  0.91049898  0.49999972  0.87878753    -0.10150
C145        C  0.50001458  0.67420882  0.74999996    -0.08600
C146        C  0.50000520  0.72581635  0.74999999    -0.10150
C147        C  0.49999942  0.27418092  0.75000016    -0.08600
C148        C  0.49999097  0.32578845  0.75000012    -0.10150
C149        C  0.50000005  0.05241174  0.57669668    -0.08600
C150        C  0.49999995  0.08950297  0.62121254    -0.10150
C151        C  0.49999995  0.08950298  0.87878774    -0.08600
C152        C  0.50000005  0.05241173  0.92330356    -0.10150
C153        C  0.50000177  0.94758555  0.57669666    -0.08600
C154        C  0.50000195  0.91049432  0.62121249    -0.10150
C155        C  0.50000195  0.91049430  0.87878769    -0.08600
C156        C  0.50000177  0.94758554  0.92330353    -0.10150
loop_ 
_geom_bond_atom_site_label_1 
_geom_bond_atom_site_label_2 
_geom_bond_distance 
_geom_bond_site_symmetry_2 
_ccdc_geom_bond_type 
C1           C74   1.448   1_565  S
C1           C78   1.448       .  S
C1           C80   1.350       .  D
C2           C71   1.448   1_565  S
C2           C75   1.448       .  S
C2           C79   1.350   1_554  D
C3            C4   1.406       .  A
C3            C8   1.406       .  A
C3           C69   1.439       .  S
C4            C5   1.400       .  A
C4            H9   1.084       .  S
C5            C6   1.396       .  A
C5           C73   1.441       .  S
C6            C7   1.396       .  A
C6           H10   1.079       .  S
C7            C8   1.400       .  A
C7           C72   1.441       .  S
C8           H11   1.084       .  S
C12          C13   1.406       .  A
C12          C17   1.406       .  A
C12          C68   1.439       .  S
C13          C14   1.400       .  A
C13          H18   1.084       .  S
C14          C15   1.396       .  A
C14          C77   1.441       .  S
C15          C16   1.396       .  A
C15          H19   1.079       .  S
C16          C17   1.400       .  A
C16          C76   1.441       .  S
C17          H20   1.084       .  S
C21          C61   1.448       .  S
C21          C65   1.448   1_455  S
C21         C100   1.350       .  D
C22          C59   1.448       .  S
C22          C64   1.448   1_455  S
C22          C99   1.350   1_554  D
C23          C24   1.406       .  A
C23          C28   1.406       .  A
C23          C58   1.439       .  S
C24          C25   1.400       .  A
C24          H29   1.084       .  S
C25          C26   1.396       .  A
C25          C62   1.441       .  S
C26          C27   1.396       .  A
C26          H30   1.079       .  S
C27          C28   1.400       .  A
C27          C60   1.441       .  S
C28          H31   1.084       .  S
C32          C33   1.406       .  A
C32          C37   1.406       .  A
C32          C55   1.439       .  S
C33          C34   1.400       .  A
C33          H38   1.084       .  S
C34          C35   1.396       .  A
C34          C66   1.441       .  S
C35          C36   1.396       .  A
C35          H39   1.079       .  S
C36          C37   1.400       .  A
C36          C63   1.441       .  S
C37          H40   1.084       .  S
O41         Cu49   2.009       .  S
O41          C51   1.276       .  A
O42         Cu49   2.009       .  S
O42          C52   1.276       .  A
O43         Cu49   2.009       .  S
O43          C53   1.276       .  A
O44         Cu49   2.009       .  S
O44          C54   1.276       .  A
O45         Cu50   2.009       .  S
O45          C54   1.276       .  A
O46         Cu50   2.009       .  S
O46          C53   1.276       .  A
O47         Cu50   2.009       .  S
O47          C52   1.276       .  A
O48         Cu50   2.009       .  S
O48          C51   1.276       .  A
Cu49        Cu50   2.380       .  S
C51          C70   1.434       .  S
C52          C67   1.434       .  S
C53          C57   1.434       .  S
C54          C56   1.434       .  S
C55          C56   1.206       .  T
C57          C58   1.206       .  T
C59          C60   1.207       .  T
C61          C62   1.207       .  T
C63          C64   1.207       .  T
C65          C66   1.207       .  T
C67          C68   1.206       .  T
C69          C70   1.206       .  T
C71          C72   1.207       .  T
C73          C74   1.207       .  T
C75          C76   1.207       .  T
C77          C78   1.207       .  T
C79         C152   1.448   1_565  S
C79         C156   1.448       .  S
C80         C149   1.448   1_565  S
C80         C153   1.448       .  S
C81          C82   1.406       .  A
C81          C86   1.406       .  A
C81         C147   1.439       .  S
C82          C83   1.400       .  A
C82          H87   1.084       .  S
C83          C84   1.396       .  A
C83         C151   1.441       .  S
C84          C85   1.396       .  A
C84          H88   1.079       .  S
C85          C86   1.400       .  A
C85         C150   1.441       .  S
C86          H89   1.084       .  S
C90          C91   1.406       .  A
C90          C95   1.406       .  A
C90         C146   1.439       .  S
C91          C92   1.400       .  A
C91          H96   1.084       .  S
C92          C93   1.396       .  A
C92         C155   1.441       .  S
C93          C94   1.396       .  A
C93          H97   1.079       .  S
C94          C95   1.400       .  A
C94         C154   1.441       .  S
C95          H98   1.084       .  S
C99         C139   1.448       .  S
C99         C143   1.448   1_455  S
C100        C137   1.448       .  S
C100        C142   1.448   1_455  S
C101        C102   1.406       .  A
C101        C106   1.406       .  A
C101        C136   1.439       .  S
C102        C103   1.400       .  A
C102        H107   1.084       .  S
C103        C104   1.396       .  A
C103        C140   1.441       .  S
C104        C105   1.396       .  A
C104        H108   1.079       .  S
C105        C106   1.400       .  A
C105        C138   1.441       .  S
C106        H109   1.084       .  S
C110        C111   1.406       .  A
C110        C115   1.406       .  A
C110        C133   1.439       .  S
C111        C112   1.400       .  A
C111        H116   1.084       .  S
C112        C113   1.396       .  A
C112        C144   1.441       .  S
C113        C114   1.396       .  A
C113        H117   1.079       .  S
C114        C115   1.400       .  A
C114        C141   1.441       .  S
C115        H118   1.084       .  S
O119       Cu127   2.009       .  S
O119        C129   1.276       .  A
O120       Cu127   2.009       .  S
O120        C130   1.276       .  A
O121       Cu127   2.009       .  S
O121        C131   1.276       .  A
O122       Cu127   2.009       .  S
O122        C132   1.276       .  A
O123       Cu128   2.009       .  S
O123        C132   1.276       .  A
O124       Cu128   2.009       .  S
O124        C131   1.276       .  A
O125       Cu128   2.009       .  S
O125        C130   1.276       .  A
O126       Cu128   2.009       .  S
O126        C129   1.276       .  A
Cu127      Cu128   2.380       .  S
C129        C148   1.434       .  S
C130        C145   1.434       .  S
C131        C135   1.434       .  S
C132        C134   1.434       .  S
C133        C134   1.206       .  T
C135        C136   1.206       .  T
C137        C138   1.207       .  T
C139        C140   1.207       .  T
C141        C142   1.207       .  T
C143        C144   1.207       .  T
C145        C146   1.206       .  T
C147        C148   1.206       .  T
C149        C150   1.207       .  T
C151        C152   1.207       .  T
C153        C154   1.207       .  T
C155        C156   1.207       .  T
