geometry optimzed in LAMMPS
_audit_creation_date              2020-11-30 
_audit_creation_method            'lammps2cif' 
_symmetry_space_group_name_H-M    'P1' 
_symmetry_Int_Tables_number       1 
_symmetry_cell_setting            triclinic 
loop_ 
_symmetry_equiv_pos_as_xyz 
  x,y,z 
_cell_length_a                    28.648722605829413 
_cell_length_b                    28.64871947863565 
_cell_length_c                    30.79279528952832 
_cell_angle_alpha                 90.00018695332271 
_cell_angle_beta                  89.99983747264885 
_cell_angle_gamma                 89.94690148293738 
loop_ 
_atom_site_label 
_atom_site_type_symbol 
_atom_site_fract_x 
_atom_site_fract_y 
_atom_site_fract_z 
_atom_site_charge 
C1          C  0.49999861  0.99999343  0.47835485     0.02470
C2          C  0.49999863  0.99999313  0.02217307     0.02470
N3          N  0.50003287  0.11875394  0.18327804    -0.25380
N4          N  0.50002639  0.15810952  0.16084410    -0.33240
C5          C  0.50002139  0.14787525  0.11810954     0.02960
C6          C  0.50002528  0.09986309  0.11398067     0.08980
C7          C  0.50003235  0.08249420  0.15568219    -0.04120
H8          H  0.50001417  0.17339381  0.09221060     0.09650
H9          H  0.50003517  0.04617823  0.16534006     0.10850
Cu10       Cu  0.50002285  0.22317293  0.19051730     0.44170
Cu11       Cu  0.50003745  0.11553000  0.25026558     0.41990
Cu12       Cu  0.50002284  0.22317629  0.31001217     0.43880
N13         N  0.50002217  0.28289637  0.22876566    -0.32770
N14         N  0.50002214  0.28289780  0.27176030    -0.27020
C15         C  0.50001890  0.32730479  0.28595898    -0.03120
C16         C  0.50001696  0.35655999  0.25026073     0.09090
C17         C  0.50001896  0.32730226  0.21456425     0.02890
H18         H  0.50001550  0.33748834  0.31979379     0.10540
H19         H  0.50001560  0.33748325  0.18072883     0.09620
N20         N  0.50002644  0.15811286  0.33968664    -0.34220
N21         N  0.50003292  0.11875687  0.31725298    -0.26400
C22         C  0.50003241  0.08249745  0.34484890    -0.01640
C23         C  0.50002535  0.09986653  0.38655035     0.06970
C24         C  0.50002145  0.14787885  0.38242134     0.05060
H25         H  0.50003523  0.04618139  0.33519107     0.10170
H26         H  0.50001421  0.17339761  0.40832027     0.09000
N27         N  0.49996337  0.88123214  0.18327671    -0.25380
N28         N  0.49996022  0.84187648  0.16084265    -0.33240
C29         C  0.49996507  0.85211058  0.11810812     0.02960
C30         C  0.49997133  0.90012271  0.11397939     0.08980
C31         C  0.49997014  0.91749176  0.15568095    -0.04120
H32         H  0.49996425  0.82659193  0.09220911     0.09650
H33         H  0.49997442  0.95380776  0.16533892     0.10850
Cu34       Cu  0.49994883  0.77681322  0.19051562     0.44170
Cu35       Cu  0.49996050  0.88445657  0.25026426     0.41990
Cu36       Cu  0.49994838  0.77681099  0.31001055     0.43880
N37         N  0.49993370  0.71709024  0.22876414    -0.32770
N38         N  0.49993351  0.71708931  0.27175878    -0.27020
C39         C  0.49992658  0.67268254  0.28595765    -0.03120
C40         C  0.49992199  0.64342696  0.25025954     0.09090
C41         C  0.49992690  0.67268421  0.21456292     0.02890
H42         H  0.49992905  0.66249939  0.31979251     0.10540
H43         H  0.49992967  0.66250280  0.18072754     0.09620
N44         N  0.49995985  0.84187437  0.33968524    -0.34220
N45         N  0.49996317  0.88123025  0.31725168    -0.26400
C46         C  0.49997001  0.91748976  0.34484772    -0.01640
C47         C  0.49997108  0.90012081  0.38654911     0.06970
C48         C  0.49996465  0.85210850  0.38241996     0.05060
H49         H  0.49997446  0.95380578  0.33519000     0.10170
H50         H  0.49996373  0.82658983  0.40831880     0.09000
C51         C  0.99996483  0.50001901  0.47835590     0.02470
C52         C  0.99996510  0.50001897  0.02217413     0.02470
N53         N  0.11872605  0.50005439  0.18327797    -0.25380
N54         N  0.15808167  0.50004899  0.16084388    -0.33240
C55         C  0.14784751  0.50004390  0.11810936     0.02960
C56         C  0.09983537  0.50004659  0.11398067     0.08980
C57         C  0.08246638  0.50005307  0.15568225    -0.04120
H58         H  0.17336613  0.50003750  0.09221033     0.09650
H59         H  0.04615039  0.50005502  0.16534025     0.10850
Cu60       Cu  0.22314501  0.50004713  0.19051680     0.44170
Cu61       Cu  0.11550185  0.50005877  0.25026553     0.41990
Cu62       Cu  0.22314777  0.50004717  0.31001174     0.43880
N63         N  0.28286825  0.50004816  0.22876504    -0.32770
N64         N  0.28286944  0.50004820  0.27175968    -0.27020
C65         C  0.32727634  0.50004604  0.28595830    -0.03120
C66         C  0.35653174  0.50004472  0.25026003     0.09090
C67         C  0.32727422  0.50004595  0.21456358     0.02890
H68         H  0.33745971  0.50004274  0.31979310     0.10540
H69         H  0.33745539  0.50004258  0.18072815     0.09620
N70         N  0.15808425  0.50004895  0.33968650    -0.34220
N71         N  0.11872835  0.50005434  0.31725293    -0.26400
C72         C  0.08246882  0.50005299  0.34484894    -0.01640
C73         C  0.09983772  0.50004652  0.38655035     0.06970
C74         C  0.14785006  0.50004386  0.38242123     0.05060
H75         H  0.04615281  0.50005494  0.33519118     0.10170
H76         H  0.17336871  0.50003749  0.40832010     0.09000
N77         N  0.88120439  0.49998268  0.18327909    -0.25380
N78         N  0.84184886  0.49998075  0.16084508    -0.33240
C79         C  0.85208313  0.49998572  0.11811055     0.02960
C80         C  0.90009525  0.49999076  0.11398173     0.08980
C81         C  0.91746414  0.49998875  0.15568327    -0.04120
H82         H  0.82656458  0.49998602  0.09221159     0.09650
H83         H  0.95378009  0.49999222  0.16534117     0.10850
Cu84       Cu  0.77678559  0.49997127  0.19051818     0.44170
Cu85       Cu  0.88442808  0.49997967  0.25026667     0.41990
Cu86       Cu  0.77678186  0.49997174  0.31001321     0.43880
N87         N  0.71706225  0.49995836  0.22876636    -0.32770
N88         N  0.71706064  0.49995856  0.27176100    -0.27020
C89         C  0.67265362  0.49995301  0.28595945    -0.03120
C90         C  0.64339865  0.49994892  0.25026105     0.09090
C91         C  0.67265649  0.49995267  0.21456472     0.02890
H92         H  0.66246988  0.49995589  0.31979422     0.10540
H93         H  0.66247567  0.49995524  0.18072925     0.09620
N94         N  0.84184522  0.49998116  0.33968776    -0.34220
N95         N  0.88120118  0.49998290  0.31725409    -0.26400
C96         C  0.91746059  0.49998890  0.34485002    -0.01640
C97         C  0.90009156  0.49999104  0.38655147     0.06970
C98         C  0.85207924  0.49998617  0.38242247     0.05060
H99         H  0.95377664  0.49999219  0.33519219     0.10170
H100        H  0.82656050  0.49998657  0.40832140     0.09000
O101        O  0.57006952  0.49996316  0.28631850    -0.71040
O102        O  0.42986052  0.50002513  0.28631792    -0.72020
O103        O  0.49999623  0.42988922  0.28631843    -0.60640
O104        O  0.49993463  0.57009842  0.28631778    -0.69050
O105        O  0.49993515  0.57009850  0.21419935    -0.68600
O106        O  0.49999670  0.42988799  0.21420003    -0.59850
O107        O  0.42986020  0.50002458  0.21419952    -0.72360
O108        O  0.57007085  0.49996256  0.21420008    -0.71140
Cu109      Cu  0.49996507  0.49999390  0.28883767     1.04560
Cu110      Cu  0.49996561  0.49999328  0.21167986     1.04330
C111        C  0.59212677  0.49995691  0.25025966     0.95160
C112        C  0.40780373  0.50003206  0.25025894     0.94300
C113        C  0.50000378  0.40783197  0.25025955     0.86450
C114        C  0.49992918  0.59215506  0.25025871     0.92720
C115        C  0.04248228  0.50003050  0.04740190    -0.11370
C116        C  0.07224312  0.50003868  0.07506370    -0.12930
C117        C  0.07224455  0.50003865  0.42546711    -0.11370
C118        C  0.04248223  0.50003051  0.45312784    -0.12930
C119        C  0.92768753  0.49999897  0.07506464    -0.11370
C120        C  0.95744820  0.50000734  0.04740252    -0.12930
C121        C  0.95744714  0.50000745  0.45312851    -0.11370
C122        C  0.92768463  0.49999917  0.42546812    -0.12930
C123        C  0.50001768  0.07227077  0.07506358    -0.11370
C124        C  0.50000979  0.04251003  0.04740151    -0.12930
C125        C  0.50001771  0.07227352  0.42546701    -0.11370
C126        C  0.50000979  0.04251110  0.45312748    -0.12930
C127        C  0.49998738  0.95747590  0.04740075    -0.11370
C128        C  0.49997929  0.92771495  0.07506244    -0.12930
C129        C  0.49998729  0.95747607  0.45312675    -0.11370
C130        C  0.49997912  0.92771386  0.42546592    -0.12870
C131        C  0.49999860  0.99999343  0.97835485     0.02470
C132        C  0.49999863  0.99999313  0.52217307     0.02470
N133        N  0.50003288  0.11875394  0.68327804    -0.25380
N134        N  0.50002639  0.15810952  0.66084409    -0.33240
C135        C  0.50002139  0.14787525  0.61810954     0.02960
C136        C  0.50002529  0.09986309  0.61398067     0.08980
C137        C  0.50003236  0.08249419  0.65568219    -0.04120
H138        H  0.50001416  0.17339381  0.59221060     0.09650
H139        H  0.50003518  0.04617823  0.66534006     0.10850
Cu140      Cu  0.50002284  0.22317293  0.69051730     0.44170
Cu141      Cu  0.50003745  0.11553000  0.75026558     0.41990
Cu142      Cu  0.50002282  0.22317629  0.81001216     0.43880
N143        N  0.50002215  0.28289637  0.72876566    -0.32770
N144        N  0.50002212  0.28289780  0.77176030    -0.27020
C145        C  0.50001888  0.32730479  0.78595897    -0.03120
C146        C  0.50001694  0.35655999  0.75026073     0.09090
C147        C  0.50001894  0.32730226  0.71456425     0.02890
H148        H  0.50001548  0.33748834  0.81979379     0.10540
H149        H  0.50001559  0.33748324  0.68072883     0.09620
N150        N  0.50002643  0.15811286  0.83968664    -0.34220
N151        N  0.50003292  0.11875687  0.81725297    -0.26400
C152        C  0.50003241  0.08249745  0.84484890    -0.01640
C153        C  0.50002534  0.09986653  0.88655034     0.06970
C154        C  0.50002144  0.14787885  0.88242134     0.05060
H155        H  0.50003523  0.04618140  0.83519107     0.10170
H156        H  0.50001419  0.17339761  0.90832027     0.09000
N157        N  0.49996335  0.88123214  0.68327671    -0.25380
N158        N  0.49996021  0.84187648  0.66084265    -0.33240
C159        C  0.49996506  0.85211058  0.61810812     0.02960
C160        C  0.49997132  0.90012271  0.61397939     0.08980
C161        C  0.49997011  0.91749176  0.65568095    -0.04120
H162        H  0.49996425  0.82659192  0.59220911     0.09650
H163        H  0.49997439  0.95380776  0.66533892     0.10850
Cu164      Cu  0.49994882  0.77681322  0.69051562     0.44170
Cu165      Cu  0.49996047  0.88445656  0.75026426     0.41990
Cu166      Cu  0.49994838  0.77681099  0.81001055     0.43880
N167        N  0.49993370  0.71709024  0.72876414    -0.32770
N168        N  0.49993351  0.71708931  0.77175878    -0.27020
C169        C  0.49992658  0.67268253  0.78595765    -0.03120
C170        C  0.49992200  0.64342696  0.75025954     0.09090
C171        C  0.49992691  0.67268421  0.71456292     0.02890
H172        H  0.49992905  0.66249939  0.81979251     0.10540
H173        H  0.49992967  0.66250280  0.68072754     0.09620
N174        N  0.49995983  0.84187437  0.83968524    -0.34220
N175        N  0.49996314  0.88123025  0.81725168    -0.26400
C176        C  0.49996999  0.91748976  0.84484772    -0.01640
C177        C  0.49997107  0.90012081  0.88654911     0.06970
C178        C  0.49996464  0.85210850  0.88241996     0.05060
H179        H  0.49997443  0.95380578  0.83519000     0.10170
H180        H  0.49996373  0.82658983  0.90831881     0.09000
C181        C  0.99996484  0.50001900  0.97835590     0.02470
C182        C  0.99996509  0.50001899  0.52217413     0.02470
N183        N  0.11872604  0.50005442  0.68327797    -0.25380
N184        N  0.15808167  0.50004902  0.66084387    -0.33240
C185        C  0.14784750  0.50004393  0.61810936     0.02960
C186        C  0.09983536  0.50004662  0.61398066     0.08980
C187        C  0.08246637  0.50005310  0.65568225    -0.04120
H188        H  0.17336612  0.50003752  0.59221032     0.09650
H189        H  0.04615039  0.50005505  0.66534025     0.10850
Cu190      Cu  0.22314501  0.50004715  0.69051679     0.44170
Cu191      Cu  0.11550185  0.50005880  0.75026552     0.41990
Cu192      Cu  0.22314777  0.50004719  0.81001173     0.43880
N193        N  0.28286825  0.50004817  0.72876503    -0.32770
N194        N  0.28286944  0.50004822  0.77175967    -0.27020
C195        C  0.32727634  0.50004605  0.78595829    -0.03120
C196        C  0.35653174  0.50004473  0.75026002     0.09090
C197        C  0.32727421  0.50004597  0.71456357     0.02890
H198        H  0.33745971  0.50004275  0.81979309     0.10540
H199        H  0.33745539  0.50004260  0.68072813     0.09620
N200        N  0.15808425  0.50004897  0.83968650    -0.34220
N201        N  0.11872835  0.50005436  0.81725293    -0.26400
C202        C  0.08246882  0.50005301  0.84484894    -0.01640
C203        C  0.09983772  0.50004653  0.88655035     0.06970
C204        C  0.14785007  0.50004387  0.88242122     0.05060
H205        H  0.04615281  0.50005496  0.83519118     0.10170
H206        H  0.17336872  0.50003749  0.90832010     0.09000
N207        N  0.88120439  0.49998268  0.68327910    -0.25380
N208        N  0.84184886  0.49998075  0.66084509    -0.33240
C209        C  0.85208312  0.49998572  0.61811056     0.02960
C210        C  0.90009525  0.49999076  0.61398173     0.08980
C211        C  0.91746414  0.49998876  0.65568327    -0.04120
H212        H  0.82656457  0.49998601  0.59221160     0.09650
H213        H  0.95378009  0.49999224  0.66534117     0.10850
Cu214      Cu  0.77678559  0.49997126  0.69051819     0.44170
Cu215      Cu  0.88442808  0.49997968  0.75026667     0.41990
Cu216      Cu  0.77678185  0.49997172  0.81001322     0.43880
N217        N  0.71706225  0.49995834  0.72876636    -0.32770
N218        N  0.71706064  0.49995854  0.77176100    -0.27020
C219        C  0.67265361  0.49995299  0.78595946    -0.03120
C220        C  0.64339865  0.49994890  0.75026105     0.09090
C221        C  0.67265649  0.49995265  0.71456473     0.02890
H222        H  0.66246988  0.49995587  0.81979422     0.10540
H223        H  0.66247567  0.49995523  0.68072925     0.09620
N224        N  0.84184522  0.49998115  0.83968777    -0.34220
N225        N  0.88120118  0.49998290  0.81725410    -0.26400
C226        C  0.91746060  0.49998890  0.84485003    -0.01640
C227        C  0.90009156  0.49999104  0.88655147     0.06970
C228        C  0.85207924  0.49998616  0.88242247     0.05060
H229        H  0.95377664  0.49999221  0.83519219     0.10170
H230        H  0.82656050  0.49998655  0.90832141     0.09000
O231        O  0.57006952  0.49996315  0.78631850    -0.71040
O232        O  0.42986052  0.50002513  0.78631791    -0.72020
O233        O  0.49999622  0.42988922  0.78631843    -0.60640
O234        O  0.49993463  0.57009842  0.78631777    -0.69050
O235        O  0.49993516  0.57009850  0.71419935    -0.68600
O236        O  0.49999670  0.42988799  0.71420002    -0.59850
O237        O  0.42986020  0.50002458  0.71419951    -0.72360
O238        O  0.57007085  0.49996255  0.71420008    -0.71140
Cu239      Cu  0.49996506  0.49999390  0.78883766     1.04560
Cu240      Cu  0.49996561  0.49999327  0.71167985     1.04330
C241        C  0.59212677  0.49995690  0.75025966     0.95160
C242        C  0.40780372  0.50003206  0.75025893     0.94300
C243        C  0.50000377  0.40783197  0.75025954     0.86450
C244        C  0.49992919  0.59215506  0.75025871     0.92720
C245        C  0.04248227  0.50003052  0.54740190    -0.11370
C246        C  0.07224311  0.50003871  0.57506370    -0.12930
C247        C  0.07224456  0.50003865  0.92546711    -0.11370
C248        C  0.04248224  0.50003050  0.95312784    -0.12930
C249        C  0.92768753  0.49999898  0.57506464    -0.11370
C250        C  0.95744819  0.50000735  0.54740252    -0.12930
C251        C  0.95744715  0.50000745  0.95312851    -0.11370
C252        C  0.92768464  0.49999917  0.92546812    -0.12930
C253        C  0.50001768  0.07227076  0.57506358    -0.11370
C254        C  0.50000979  0.04251003  0.54740151    -0.12930
C255        C  0.50001770  0.07227352  0.92546701    -0.11370
C256        C  0.50000978  0.04251111  0.95312748    -0.12930
C257        C  0.49998738  0.95747589  0.54740074    -0.11370
C258        C  0.49997929  0.92771495  0.57506244    -0.12930
C259        C  0.49998728  0.95747607  0.95312675    -0.11370
C260        C  0.49997911  0.92771386  0.92546592    -0.12870
loop_ 
_geom_bond_atom_site_label_1 
_geom_bond_atom_site_label_2 
_geom_bond_distance 
_geom_bond_site_symmetry_2 
_ccdc_geom_bond_type 
C1          C126   1.445   1_565  S
C1          C129   1.445       .  S
C1          C132   1.349       .  D
C2          C124   1.445   1_565  S
C2          C127   1.445       .  S
C2          C131   1.349   1_554  D
N3            N4   1.322       .  A
N3            C7   1.342       .  A
N3          Cu11   2.065       .  S
N4            C5   1.348       .  A
N4          Cu10   2.076       .  S
C5            C6   1.381       .  A
C5            H8   1.082       .  S
C6            C7   1.377       .  A
C6          C123   1.436       .  S
C7            H9   1.082       .  S
Cu10         N13   2.077       .  S
Cu11         N21   2.065       .  S
Cu12         N14   2.077       .  S
Cu12         N20   2.076       .  S
N13          N14   1.324       .  A
N13          C17   1.345       .  A
N14          C15   1.345       .  A
C15          C16   1.382       .  A
C15          H18   1.082       .  S
C16          C17   1.382       .  A
C16         C113   1.469       .  S
C17          H19   1.082       .  S
N20          N21   1.322       .  A
N20          C24   1.348       .  A
N21          C22   1.342       .  A
C22          C23   1.377       .  A
C22          H25   1.082       .  S
C23          C24   1.381       .  A
C23         C125   1.436       .  S
C24          H26   1.082       .  S
N27          N28   1.322       .  A
N27          C31   1.342       .  A
N27         Cu35   2.065       .  S
N28          C29   1.348       .  A
N28         Cu34   2.076       .  S
C29          C30   1.381       .  A
C29          H32   1.082       .  S
C30          C31   1.377       .  A
C30         C128   1.436       .  S
C31          H33   1.082       .  S
Cu34         N37   2.077       .  S
Cu35         N45   2.065       .  S
Cu36         N38   2.077       .  S
Cu36         N44   2.076       .  S
N37          N38   1.324       .  A
N37          C41   1.345       .  A
N38          C39   1.345       .  A
C39          C40   1.382       .  A
C39          H42   1.082       .  S
C40          C41   1.382       .  A
C40         C114   1.469       .  S
C41          H43   1.082       .  S
N44          N45   1.322       .  A
N44          C48   1.348       .  A
N45          C46   1.342       .  A
C46          C47   1.377       .  A
C46          H49   1.082       .  S
C47          C48   1.381       .  A
C47         C130   1.436       .  S
C48          H50   1.082       .  S
C51         C118   1.445   1_655  S
C51         C121   1.445       .  S
C51         C182   1.349       .  D
C52         C115   1.445   1_655  S
C52         C120   1.445       .  S
C52         C181   1.349   1_554  D
N53          N54   1.322       .  A
N53          C57   1.342       .  A
N53         Cu61   2.065       .  S
N54          C55   1.348       .  A
N54         Cu60   2.076       .  S
C55          C56   1.381       .  A
C55          H58   1.082       .  S
C56          C57   1.377       .  A
C56         C116   1.436       .  S
C57          H59   1.082       .  S
Cu60         N63   2.077       .  S
Cu61         N71   2.065       .  S
Cu62         N64   2.077       .  S
Cu62         N70   2.076       .  S
N63          N64   1.324       .  A
N63          C67   1.345       .  A
N64          C65   1.345       .  A
C65          C66   1.382       .  A
C65          H68   1.082       .  S
C66          C67   1.382       .  A
C66         C112   1.469       .  S
C67          H69   1.082       .  S
N70          N71   1.322       .  A
N70          C74   1.348       .  A
N71          C72   1.342       .  A
C72          C73   1.377       .  A
C72          H75   1.082       .  S
C73          C74   1.381       .  A
C73         C117   1.436       .  S
C74          H76   1.082       .  S
N77          N78   1.322       .  A
N77          C81   1.342       .  A
N77         Cu85   2.065       .  S
N78          C79   1.348       .  A
N78         Cu84   2.076       .  S
C79          C80   1.381       .  A
C79          H82   1.082       .  S
C80          C81   1.377       .  A
C80         C119   1.436       .  S
C81          H83   1.082       .  S
Cu84         N87   2.077       .  S
Cu85         N95   2.065       .  S
Cu86         N88   2.077       .  S
Cu86         N94   2.076       .  S
N87          N88   1.324       .  A
N87          C91   1.345       .  A
N88          C89   1.345       .  A
C89          C90   1.382       .  A
C89          H92   1.082       .  S
C90          C91   1.382       .  A
C90         C111   1.469       .  S
C91          H93   1.082       .  S
N94          N95   1.322       .  A
N94          C98   1.348       .  A
N95          C96   1.342       .  A
C96          C97   1.377       .  A
C96          H99   1.082       .  S
C97          C98   1.381       .  A
C97         C122   1.436       .  S
C98         H100   1.082       .  S
O101       Cu109   2.010       .  S
O101        C111   1.278       .  A
O102       Cu109   2.010       .  S
O102        C112   1.278       .  A
O103       Cu109   2.010       .  S
O103        C113   1.278       .  A
O104       Cu109   2.010       .  S
O104        C114   1.278       .  A
O105       Cu110   2.010       .  S
O105        C114   1.278       .  A
O106       Cu110   2.010       .  S
O106        C113   1.278       .  A
O107       Cu110   2.010       .  S
O107        C112   1.278       .  A
O108       Cu110   2.010       .  S
O108        C111   1.278       .  A
Cu109      Cu110   2.376       .  S
C115        C116   1.205       .  T
C117        C118   1.205       .  T
C119        C120   1.205       .  T
C121        C122   1.205       .  T
C123        C124   1.205       .  T
C125        C126   1.205       .  T
C127        C128   1.205       .  T
C129        C130   1.205       .  T
C131        C256   1.445   1_565  S
C131        C259   1.445       .  S
C132        C254   1.445   1_565  S
C132        C257   1.445       .  S
N133        N134   1.322       .  A
N133        C137   1.342       .  A
N133       Cu141   2.065       .  S
N134        C135   1.348       .  A
N134       Cu140   2.076       .  S
C135        C136   1.381       .  A
C135        H138   1.082       .  S
C136        C137   1.377       .  A
C136        C253   1.436       .  S
C137        H139   1.082       .  S
Cu140       N143   2.077       .  S
Cu141       N151   2.065       .  S
Cu142       N144   2.077       .  S
Cu142       N150   2.076       .  S
N143        N144   1.324       .  A
N143        C147   1.345       .  A
N144        C145   1.345       .  A
C145        C146   1.382       .  A
C145        H148   1.082       .  S
C146        C147   1.382       .  A
C146        C243   1.469       .  S
C147        H149   1.082       .  S
N150        N151   1.322       .  A
N150        C154   1.348       .  A
N151        C152   1.342       .  A
C152        C153   1.377       .  A
C152        H155   1.082       .  S
C153        C154   1.381       .  A
C153        C255   1.436       .  S
C154        H156   1.082       .  S
N157        N158   1.322       .  A
N157        C161   1.342       .  A
N157       Cu165   2.065       .  S
N158        C159   1.348       .  A
N158       Cu164   2.076       .  S
C159        C160   1.381       .  A
C159        H162   1.082       .  S
C160        C161   1.377       .  A
C160        C258   1.436       .  S
C161        H163   1.082       .  S
Cu164       N167   2.077       .  S
Cu165       N175   2.065       .  S
Cu166       N168   2.077       .  S
Cu166       N174   2.076       .  S
N167        N168   1.324       .  A
N167        C171   1.345       .  A
N168        C169   1.345       .  A
C169        C170   1.382       .  A
C169        H172   1.082       .  S
C170        C171   1.382       .  A
C170        C244   1.469       .  S
C171        H173   1.082       .  S
N174        N175   1.322       .  A
N174        C178   1.348       .  A
N175        C176   1.342       .  A
C176        C177   1.377       .  A
C176        H179   1.082       .  S
C177        C178   1.381       .  A
C177        C260   1.436       .  S
C178        H180   1.082       .  S
C181        C248   1.445   1_655  S
C181        C251   1.445       .  S
C182        C245   1.445   1_655  S
C182        C250   1.445       .  S
N183        N184   1.322       .  A
N183        C187   1.342       .  A
N183       Cu191   2.065       .  S
N184        C185   1.348       .  A
N184       Cu190   2.076       .  S
C185        C186   1.381       .  A
C185        H188   1.082       .  S
C186        C187   1.377       .  A
C186        C246   1.436       .  S
C187        H189   1.082       .  S
Cu190       N193   2.077       .  S
Cu191       N201   2.065       .  S
Cu192       N194   2.077       .  S
Cu192       N200   2.076       .  S
N193        N194   1.324       .  A
N193        C197   1.345       .  A
N194        C195   1.345       .  A
C195        C196   1.382       .  A
C195        H198   1.082       .  S
C196        C197   1.382       .  A
C196        C242   1.469       .  S
C197        H199   1.082       .  S
N200        N201   1.322       .  A
N200        C204   1.348       .  A
N201        C202   1.342       .  A
C202        C203   1.377       .  A
C202        H205   1.082       .  S
C203        C204   1.381       .  A
C203        C247   1.436       .  S
C204        H206   1.082       .  S
N207        N208   1.322       .  A
N207        C211   1.342       .  A
N207       Cu215   2.065       .  S
N208        C209   1.348       .  A
N208       Cu214   2.076       .  S
C209        C210   1.381       .  A
C209        H212   1.082       .  S
C210        C211   1.377       .  A
C210        C249   1.436       .  S
C211        H213   1.082       .  S
Cu214       N217   2.077       .  S
Cu215       N225   2.065       .  S
Cu216       N218   2.077       .  S
Cu216       N224   2.076       .  S
N217        N218   1.324       .  A
N217        C221   1.345       .  A
N218        C219   1.345       .  A
C219        C220   1.382       .  A
C219        H222   1.082       .  S
C220        C221   1.382       .  A
C220        C241   1.469       .  S
C221        H223   1.082       .  S
N224        N225   1.322       .  A
N224        C228   1.348       .  A
N225        C226   1.342       .  A
C226        C227   1.377       .  A
C226        H229   1.082       .  S
C227        C228   1.381       .  A
C227        C252   1.436       .  S
C228        H230   1.082       .  S
O231       Cu239   2.010       .  S
O231        C241   1.278       .  A
O232       Cu239   2.010       .  S
O232        C242   1.278       .  A
O233       Cu239   2.010       .  S
O233        C243   1.278       .  A
O234       Cu239   2.010       .  S
O234        C244   1.278       .  A
O235       Cu240   2.010       .  S
O235        C244   1.278       .  A
O236       Cu240   2.010       .  S
O236        C243   1.278       .  A
O237       Cu240   2.010       .  S
O237        C242   1.278       .  A
O238       Cu240   2.010       .  S
O238        C241   1.278       .  A
Cu239      Cu240   2.376       .  S
C245        C246   1.205       .  T
C247        C248   1.205       .  T
C249        C250   1.205       .  T
C251        C252   1.205       .  T
C253        C254   1.205       .  T
C255        C256   1.205       .  T
C257        C258   1.205       .  T
C259        C260   1.205       .  T
