geometry optimzed in LAMMPS
_audit_creation_date              2020-11-30 
_audit_creation_method            'lammps2cif' 
_symmetry_space_group_name_H-M    'P1' 
_symmetry_Int_Tables_number       1 
_symmetry_cell_setting            triclinic 
loop_ 
_symmetry_equiv_pos_as_xyz 
  x,y,z 
_cell_length_a                    33.80980562091015 
_cell_length_b                    33.88013313855036 
_cell_length_c                    21.826124868157304 
_cell_angle_alpha                 90.33088700797967 
_cell_angle_beta                  89.73468805877827 
_cell_angle_gamma                 89.67970846084805 
loop_ 
_atom_site_label 
_atom_site_type_symbol 
_atom_site_fract_x 
_atom_site_fract_y 
_atom_site_fract_z 
_atom_site_charge 
C1          C  0.49992896  0.99970518  0.46832375     0.00310
C2          C  0.50017548  0.99949706  0.03093447     0.00310
N3          N  0.51728019  0.08466593  0.37207344    -0.27550
N4          N  0.53857815  0.05747849  0.34331190    -0.35410
C5          C  0.54017774  0.02506607  0.37838737     0.00790
C6          C  0.51836230  0.03167108  0.43159772     0.06820
C7          C  0.50386746  0.06978956  0.42512992    -0.06280
H8          H  0.55129491  0.99678295  0.36241858     0.07490
H9          H  0.48070321  0.08371811  0.45168867     0.08690
Cu10       Cu  0.55058718  0.05929792  0.24986115     0.44170
Cu11       Cu  0.50134668  0.13804124  0.33335167     0.41990
Cu12       Cu  0.49904546  0.13684084  0.16996542     0.43880
N13         N  0.53813219  0.05733205  0.15670565    -0.34930
N14         N  0.51594011  0.08407516  0.12940089    -0.29190
C15         C  0.50267295  0.06919342  0.07622354    -0.05290
C16         C  0.51822434  0.03157695  0.06805038     0.06930
C17         C  0.54043990  0.02518358  0.12050928     0.00720
H18         H  0.47891342  0.08256080  0.05084045     0.08380
H19         H  0.55234233  0.99710556  0.13525072     0.07450
N20         N  0.49419525  0.18816813  0.22111618    -0.36380
N21         N  0.49527059  0.18869140  0.28158710    -0.28560
C22         C  0.49595067  0.22637451  0.30118902    -0.03800
C23         C  0.49586157  0.25074155  0.25041766     0.04810
C24         C  0.49413737  0.22547321  0.20047983     0.02900
H25         H  0.49751935  0.23524823  0.34873667     0.08010
H26         H  0.49479433  0.23354540  0.15265396     0.06840
N27         N  0.48276424  0.91491465  0.37061537    -0.27550
N28         N  0.46139246  0.94203746  0.34267413    -0.35410
C29         C  0.45967320  0.97442518  0.37841695     0.00790
C30         C  0.48148336  0.96780976  0.43121893     0.06820
C31         C  0.49609168  0.92975433  0.42379978    -0.06280
H32         H  0.44851264  0.00268495  0.36316138     0.07490
H33         H  0.51929454  0.91590359  0.44970583     0.08690
Cu34       Cu  0.44955693  0.93991150  0.24934229     0.44170
Cu35       Cu  0.49893745  0.86175107  0.33051690     0.41990
Cu36       Cu  0.50115221  0.86170665  0.16719073     0.43880
N37         N  0.46220980  0.94152251  0.15608424    -0.34930
N38         N  0.48438362  0.91473471  0.12799326    -0.29190
C39         C  0.49769380  0.92966989  0.07491873    -0.05290
C40         C  0.48217539  0.96732392  0.06766194     0.06930
C41         C  0.45994996  0.97368321  0.12052815     0.00720
H42         H  0.52141525  0.91626742  0.04888621     0.08380
H43         H  0.44804048  0.00176628  0.13596627     0.07450
N44         N  0.50616632  0.81064185  0.21837736    -0.36380
N45         N  0.50503355  0.81071137  0.27885320    -0.28560
C46         C  0.50433073  0.77324658  0.29875277    -0.03800
C47         C  0.50450156  0.74827794  0.24829893     0.04810
C48         C  0.50635868  0.77308865  0.19805725     0.02900
H49         H  0.50195576  0.76485138  0.34632391     0.08010
H50         H  0.50669941  0.76463900  0.15026171     0.06840
C51         C  0.99972558  0.49979505  0.46886931     0.00310
C52         C  0.99957308  0.50016170  0.03149641     0.00310
N53         N  0.08409338  0.51520526  0.36990601    -0.27550
N54         N  0.05743550  0.53790220  0.34332575    -0.35410
C55         C  0.02546056  0.54041404  0.37996941     0.00790
C56         C  0.03189090  0.51785849  0.43199196     0.06820
C57         C  0.06930293  0.50184613  0.42303892    -0.06280
H58         H  0.99737421  0.55268165  0.36574744     0.07490
H59         H  0.08247399  0.47772565  0.44787571     0.08690
Cu60       Cu  0.05902838  0.55095757  0.25038460     0.44170
Cu61       Cu  0.13662224  0.49791676  0.32858894     0.41990
Cu62       Cu  0.13883452  0.50505340  0.16547168     0.43830
N63         N  0.05700399  0.53958339  0.15675582    -0.34930
N64         N  0.08476951  0.51947311  0.12725772    -0.29190
C65         C  0.06999226  0.50595163  0.07412629    -0.05290
C66         C  0.03125303  0.51909972  0.06847816     0.06930
C67         C  0.02427141  0.54031405  0.12214699     0.00720
H68         H  0.08464463  0.48361847  0.04681923     0.08380
H69         H  0.99570217  0.55044293  0.13865226     0.07450
N70         N  0.18929226  0.49794363  0.21768316    -0.36380
N71         N  0.18831491  0.49399704  0.27786337    -0.28560
C72         C  0.22555298  0.49232661  0.29910278    -0.03800
C73         C  0.25110515  0.49610404  0.24993128     0.04810
C74         C  0.22720305  0.49940275  0.19894470     0.02900
H75         H  0.23340184  0.49058236  0.34695075     0.08010
H76         H  0.23662087  0.50357486  0.15204819     0.06840
N77         N  0.91462337  0.48150264  0.37262168    -0.27550
N78         N  0.94213852  0.46079177  0.34353662    -0.35410
C79         C  0.97473232  0.45961827  0.37844620     0.00790
C80         C  0.96791360  0.48111533  0.43189486     0.06820
C81         C  0.92946070  0.49495828  0.42573901    -0.06280
H82         H  0.00318809  0.44896743  0.36226721     0.07490
H83         H  0.91517539  0.51775605  0.45262610     0.08690
Cu84       Cu  0.94030401  0.44899178  0.25001405     0.44170
Cu85       Cu  0.86085151  0.49686895  0.33419458     0.41990
Cu86       Cu  0.86221848  0.50042783  0.17094497     0.43880
N87         N  0.94198891  0.46155774  0.15692132    -0.34930
N88         N  0.91502700  0.48366487  0.12990411    -0.29190
C89         C  0.92979817  0.49714653  0.07682391    -0.05290
C90         C  0.96754195  0.48180809  0.06837026     0.06930
C91         C  0.97414659  0.45950453  0.12060485     0.00720
H92         H  0.91628291  0.52095635  0.05172512     0.08380
H93         H  0.00238235  0.44777350  0.13518708     0.07450
N94         N  0.81091398  0.50689615  0.22214973    -0.36380
N95         N  0.81026487  0.50499789  0.28256510    -0.28560
C96         C  0.77247244  0.50606323  0.30205591    -0.03800
C97         C  0.74817585  0.50925510  0.25139892     0.04810
C98         C  0.77359632  0.50942387  0.20147752     0.02900
H99         H  0.76332067  0.50356225  0.34938458     0.08010
H100        H  0.76553492  0.50935010  0.15363229     0.06840
O101        O  0.55930473  0.49829243  0.29914901    -0.73200
O102        O  0.44060259  0.49872929  0.30246289    -0.74180
O103        O  0.49999765  0.43959801  0.29880340    -0.62800
O104        O  0.50033885  0.55821378  0.30212471    -0.71210
O105        O  0.49927665  0.55892655  0.20054263    -0.70760
O106        O  0.49897749  0.44048538  0.19715888    -0.62020
O107        O  0.43974593  0.49993868  0.20071671    -0.74530
O108        O  0.55867719  0.49974683  0.19747802    -0.73310
Cu109      Cu  0.50006947  0.49874279  0.30417950     1.04560
Cu110      Cu  0.49914220  0.49981272  0.19543554     1.04330
C111        C  0.57770444  0.49890069  0.24792906     0.93000
C112        C  0.42152645  0.49865611  0.25207957     0.92140
C113        C  0.49885781  0.42135302  0.24743241     0.84280
C114        C  0.50051244  0.57731201  0.25175800     0.90550
C115        C  0.70445793  0.50759425  0.25042327    -0.06380
C116        C  0.68537365  0.47931673  0.28670390    -0.17510
C117        C  0.64426863  0.47476219  0.28495969     0.10820
C118        C  0.62134133  0.49961711  0.24720488    -0.06310
C119        C  0.64038542  0.52766333  0.21058283    -0.17540
C120        C  0.68148298  0.53229601  0.21240554     0.10850
S121        S  0.62307467  0.43543525  0.32951096    -0.32510
S122        S  0.70235696  0.57190061  0.16816115    -0.32510
H123        H  0.73166221  0.58164331  0.21113448     0.28860
H124        H  0.59316937  0.42637027  0.28718270     0.28850
H125        H  0.70271222  0.45976547  0.31520245     0.19440
H126        H  0.62295208  0.54724381  0.18222740     0.19450
C127        C  0.37802775  0.49728238  0.25297715    -0.06380
C128        C  0.35722620  0.52925741  0.22798807    -0.17510
C129        C  0.31584676  0.53034793  0.22836171     0.10820
C130        C  0.29460499  0.49807443  0.25216127    -0.06310
C131        C  0.31531342  0.46627247  0.27759105    -0.17540
C132        C  0.35670357  0.46532552  0.27822803     0.10850
S133        S  0.29201096  0.57449385  0.20070187    -0.32510
S134        S  0.37941264  0.42156931  0.30992260    -0.32510
H135        H  0.41862453  0.42828662  0.29270748     0.28860
H136        H  0.25982584  0.57322091  0.24169702     0.28850
H137        H  0.37338887  0.55408007  0.20950958     0.19440
H138        H  0.29903492  0.44148024  0.29591284     0.19450
C139        C  0.50202716  0.70458315  0.24907790    -0.06380
C140        C  0.52370963  0.68404396  0.29353436    -0.17510
C141        C  0.52425784  0.64273807  0.29513956     0.10820
C142        C  0.50192020  0.62100445  0.25208051    -0.06310
C143        C  0.47997635  0.64153705  0.20794721    -0.17540
C144        C  0.47917064  0.68283276  0.20663119     0.10850
S145        S  0.55593483  0.61974978  0.35090702    -0.32510
S146        S  0.44614252  0.70555638  0.15249680    -0.32510
H147        H  0.43376241  0.73590330  0.19259036     0.28860
H148        H  0.56999474  0.59013746  0.31075905     0.28850
H149        H  0.54149070  0.70028045  0.32614020     0.19440
H150        H  0.46220103  0.62526628  0.17535386     0.19450
C151        C  0.49828931  0.29433346  0.24890297    -0.06380
C152        C  0.47385645  0.31480781  0.20798425    -0.17510
C153        C  0.47310459  0.35610235  0.20648247     0.10820
C154        C  0.49763281  0.37777750  0.24670964    -0.06310
C155        C  0.52236969  0.35726863  0.28715953    -0.17540
C156        C  0.52374382  0.31600567  0.28759500     0.10850
S157        S  0.43909735  0.37877260  0.15357450    -0.32510
S158        S  0.56076141  0.29315719  0.33507484    -0.32510
H159        H  0.56970737  0.26257394  0.29329003     0.28860
H160        H  0.42999627  0.41193001  0.18980509     0.28850
H161        H  0.45434362  0.29849476  0.17796193     0.19440
H162        H  0.54190785  0.37354486  0.31718841     0.19450
C163        C  0.49992895  0.99970518  0.96832375     0.00310
C164        C  0.50017548  0.99949706  0.53093447     0.00310
N165        N  0.51728013  0.08466595  0.87207344    -0.27550
N166        N  0.53857811  0.05747852  0.84331190    -0.35410
C167        C  0.54017772  0.02506610  0.87838736     0.00790
C168        C  0.51836228  0.03167109  0.93159772     0.06820
C169        C  0.50386741  0.06978956  0.92512991    -0.06280
H170        H  0.55129491  0.99678299  0.86241858     0.07490
H171        H  0.48070315  0.08371810  0.95168867     0.08690
Cu172      Cu  0.55058714  0.05929796  0.74986115     0.44170
Cu173      Cu  0.50134661  0.13804125  0.83335168     0.41990
Cu174      Cu  0.49904538  0.13684084  0.66996542     0.43880
N175        N  0.53813215  0.05733207  0.65670565    -0.34930
N176        N  0.51594005  0.08407517  0.62940089    -0.29190
C177        C  0.50267291  0.06919341  0.57622354    -0.05290
C178        C  0.51822432  0.03157696  0.56805038     0.06930
C179        C  0.54043989  0.02518360  0.62050928     0.00720
H180        H  0.47891337  0.08256078  0.55084046     0.08380
H181        H  0.55234234  0.99710559  0.63525073     0.07450
N182        N  0.49419520  0.18816813  0.72111617    -0.36380
N183        N  0.49527055  0.18869142  0.78158709    -0.28560
C184        C  0.49595065  0.22637453  0.80118899    -0.03800
C185        C  0.49586157  0.25074156  0.75041762     0.04810
C186        C  0.49413734  0.22547321  0.70047980     0.02900
H187        H  0.49751934  0.23524826  0.84873664     0.08010
H188        H  0.49479430  0.23354539  0.65265393     0.06840
N189        N  0.48276431  0.91491465  0.87061537    -0.27550
N190        N  0.46139250  0.94203743  0.84267412    -0.35410
C191        C  0.45967321  0.97442514  0.87841695     0.00790
C192        C  0.48148338  0.96780975  0.93121893     0.06820
C193        C  0.49609174  0.92975433  0.92379977    -0.06280
H194        H  0.44851263  0.00268491  0.86316139     0.07490
H195        H  0.51929462  0.91590362  0.94970582     0.08690
Cu196      Cu  0.44955697  0.93991146  0.74934229     0.44170
Cu197      Cu  0.49893755  0.86175107  0.83051689     0.41990
Cu198      Cu  0.50115227  0.86170664  0.66719072     0.43880
N199        N  0.46220983  0.94152248  0.65608424    -0.34930
N200        N  0.48438367  0.91473469  0.62799326    -0.29190
C201        C  0.49769384  0.92966989  0.57491873    -0.05290
C202        C  0.48217541  0.96732391  0.56766195     0.06930
C203        C  0.45994998  0.97368318  0.62052815     0.00720
H204        H  0.52141531  0.91626743  0.54888622     0.08380
H205        H  0.44804048  0.00176625  0.63596627     0.07450
N206        N  0.50616637  0.81064185  0.71837735    -0.36380
N207        N  0.50503362  0.81071137  0.77885319    -0.28560
C208        C  0.50433078  0.77324658  0.79875276    -0.03800
C209        C  0.50450157  0.74827794  0.74829893     0.04810
C210        C  0.50635869  0.77308865  0.69805724     0.02900
H211        H  0.50195582  0.76485138  0.84632391     0.08010
H212        H  0.50669939  0.76463899  0.65026170     0.06840
C213        C  0.99972559  0.49979505  0.96886931     0.00310
C214        C  0.99957308  0.50016169  0.53149641     0.00310
N215        N  0.08409339  0.51520534  0.86990602    -0.27550
N216        N  0.05743548  0.53790224  0.84332575    -0.35410
C217        C  0.02546054  0.54041406  0.87996940     0.00790
C218        C  0.03189090  0.51785851  0.93199196     0.06820
C219        C  0.06930294  0.50184619  0.92303893    -0.06280
H220        H  0.99737418  0.55268163  0.86574742     0.07490
H221        H  0.08247402  0.47772572  0.94787572     0.08690
Cu222      Cu  0.05902836  0.55095759  0.75038459     0.44170
Cu223      Cu  0.13662226  0.49791686  0.82858897     0.41990
Cu224      Cu  0.13883450  0.50505335  0.66547169     0.43830
N225        N  0.05700398  0.53958338  0.65675581    -0.34930
N226        N  0.08476950  0.51947308  0.62725772    -0.29190
C227        C  0.06999225  0.50595161  0.57412629    -0.05290
C228        C  0.03125302  0.51909971  0.56847815     0.06930
C229        C  0.02427141  0.54031404  0.62214698     0.00720
H230        H  0.08464462  0.48361844  0.54681923     0.08380
H231        H  0.99570217  0.55044294  0.63865223     0.07450
N232        N  0.18929225  0.49794357  0.71768315    -0.36380
N233        N  0.18831492  0.49399704  0.77786337    -0.28560
C234        C  0.22555300  0.49232659  0.79910275    -0.03800
C235        C  0.25110515  0.49610395  0.74993121     0.04810
C236        C  0.22720303  0.49940262  0.69894465     0.02900
H237        H  0.23340187  0.49058239  0.84695071     0.08010
H238        H  0.23662084  0.50357469  0.65204812     0.06840
N239        N  0.91462339  0.48150257  0.87262169    -0.27550
N240        N  0.94213855  0.46079173  0.84353662    -0.35410
C241        C  0.97473236  0.45961826  0.87844620     0.00790
C242        C  0.96791362  0.48111531  0.93189486     0.06820
C243        C  0.92946070  0.49495822  0.92573902    -0.06280
H244        H  0.00318813  0.44896745  0.86226720     0.07490
H245        H  0.91517538  0.51775599  0.95262611     0.08690
Cu246      Cu  0.94030404  0.44899175  0.75001405     0.44170
Cu247      Cu  0.86085152  0.49686887  0.83419459     0.41990
Cu248      Cu  0.86221850  0.50042781  0.67094500     0.43880
N249        N  0.94198892  0.46155772  0.65692133    -0.34930
N250        N  0.91502701  0.48366485  0.62990413    -0.29190
C251        C  0.92979817  0.49714651  0.57682392    -0.05290
C252        C  0.96754195  0.48180808  0.56837026     0.06930
C253        C  0.97414661  0.45950451  0.62060484     0.00720
H254        H  0.91628290  0.52095633  0.55172512     0.08380
H255        H  0.00238237  0.44777349  0.63518706     0.07450
N256        N  0.81091400  0.50689615  0.72214975    -0.36380
N257        N  0.81026488  0.50499788  0.78256512    -0.28560
C258        C  0.77247245  0.50606324  0.80205592    -0.03800
C259        C  0.74817587  0.50925514  0.75139892     0.04810
C260        C  0.77359634  0.50942391  0.70147753     0.02900
H261        H  0.76332068  0.50356224  0.84938458     0.08010
H262        H  0.76553495  0.50935016  0.65363230     0.06840
O263        O  0.55930473  0.49829246  0.79914895    -0.73200
O264        O  0.44060259  0.49872926  0.80246278    -0.74180
O265        O  0.49999767  0.43959801  0.79880331    -0.62800
O266        O  0.50033882  0.55821377  0.80212464    -0.71210
O267        O  0.49927663  0.55892656  0.70054256    -0.70760
O268        O  0.49897754  0.44048539  0.69715879    -0.62020
O269        O  0.43974594  0.49993865  0.70071661    -0.74530
O270        O  0.55867720  0.49974687  0.69747797    -0.73310
Cu271      Cu  0.50006946  0.49874278  0.80417942     1.04560
Cu272      Cu  0.49914221  0.49981273  0.69543546     1.04330
C273        C  0.57770445  0.49890074  0.74792902     0.93000
C274        C  0.42152645  0.49865607  0.75207946     0.92140
C275        C  0.49885785  0.42135302  0.74743231     0.84280
C276        C  0.50051241  0.57731202  0.75175794     0.90550
C277        C  0.70445794  0.50759430  0.75042327    -0.06380
C278        C  0.68537365  0.47931681  0.78670394    -0.17510
C279        C  0.64426864  0.47476227  0.78495972     0.10820
C280        C  0.62134134  0.49961716  0.74720486    -0.06310
C281        C  0.64038544  0.52766336  0.71058277    -0.17540
C282        C  0.68148300  0.53229604  0.71240549     0.10850
S283        S  0.62307467  0.43543536  0.82951105    -0.32510
S284        S  0.70235699  0.57190061  0.66816104    -0.32510
H285        H  0.73166223  0.58164333  0.71113437     0.28860
H286        H  0.59316939  0.42637033  0.78718277     0.28850
H287        H  0.70271222  0.45976556  0.81520253     0.19440
H288        H  0.62295210  0.54724381  0.68222730     0.19450
C289        C  0.37802775  0.49728231  0.75297702    -0.06380
C290        C  0.35722619  0.52925733  0.72798796    -0.17510
C291        C  0.31584675  0.53034784  0.72836160     0.10820
C292        C  0.29460500  0.49807433  0.75216116    -0.06310
C293        C  0.31531343  0.46627236  0.77759091    -0.17540
C294        C  0.35670359  0.46532544  0.77822788     0.10850
S295        S  0.29201093  0.57449376  0.70070177    -0.32510
S296        S  0.37941267  0.42156921  0.80992240    -0.32510
H297        H  0.41862457  0.42828658  0.79270740     0.28860
H298        H  0.25982582  0.57322080  0.74169694     0.28850
H299        H  0.37338885  0.55408001  0.70950948     0.19440
H300        H  0.29903495  0.44148013  0.79591269     0.19450
C301        C  0.50202715  0.70458315  0.74907789    -0.06380
C302        C  0.52370965  0.68404394  0.79353430    -0.17510
C303        C  0.52425785  0.64273805  0.79513949     0.10820
C304        C  0.50192017  0.62100445  0.75208047    -0.06310
C305        C  0.47997628  0.64153707  0.70794723    -0.17540
C306        C  0.47917059  0.68283277  0.70663122     0.10850
S307        S  0.55593488  0.61974975  0.85090686    -0.32510
S308        S  0.44614242  0.70555642  0.65249692    -0.32510
H309        H  0.43376237  0.73590335  0.69259050     0.28860
H310        H  0.56999475  0.59013742  0.81075885     0.28850
H311        H  0.54149075  0.70028043  0.82614012     0.19440
H312        H  0.46220093  0.62526631  0.67535391     0.19450
C313        C  0.49828933  0.29433347  0.74890290    -0.06380
C314        C  0.47385647  0.31480782  0.70798418    -0.17510
C315        C  0.47310463  0.35610236  0.70648238     0.10820
C316        C  0.49763286  0.37777751  0.74670954    -0.06310
C317        C  0.52236973  0.35726863  0.78715943    -0.17540
C318        C  0.52374385  0.31600567  0.78759492     0.10850
S319        S  0.43909739  0.37877260  0.65357440    -0.32510
S320        S  0.56076144  0.29315718  0.83507476    -0.32510
H321        H  0.56970737  0.26257392  0.79328997     0.28860
H322        H  0.42999632  0.41193002  0.68980498     0.28850
H323        H  0.45434363  0.29849477  0.67796187     0.19440
H324        H  0.54190790  0.37354486  0.81718830     0.19450
loop_ 
_geom_bond_atom_site_label_1 
_geom_bond_atom_site_label_2 
_geom_bond_distance 
_geom_bond_site_symmetry_2 
_ccdc_geom_bond_type 
C1            C6   1.489   1_565  S
C1           C30   1.488       .  S
C1          C164   1.367       .  D
C2           C40   1.488       .  S
C2           C16   1.487   1_565  S
C2          C163   1.367   1_554  D
N3            N4   1.320       .  A
N3            C7   1.344       .  A
N3          Cu11   2.070       .  S
N4            C5   1.343       .  A
N4          Cu10   2.079       .  S
C5            C6   1.389       .  A
C5            H8   1.083   1_545  S
C6            C7   1.387       .  A
C7            H9   1.077       .  S
Cu10         N13   2.079       .  S
Cu11         N21   2.070       .  S
Cu12         N14   2.067       .  S
Cu12         N20   2.066       .  S
N13          N14   1.320       .  A
N13          C17   1.344       .  A
N14          C15   1.343       .  A
C15          C16   1.386       .  A
C15          H18   1.077       .  S
C16          C17   1.390       .  A
C17          H19   1.082   1_545  S
N20          N21   1.321       .  A
N20          C24   1.344       .  A
N21          C22   1.344       .  A
C22          C23   1.386       .  A
C22          H25   1.080       .  S
C23          C24   1.384       .  A
C23         C151   1.480       .  S
C24          H26   1.081       .  S
N27          N28   1.320       .  A
N27          C31   1.343       .  A
N27         Cu35   2.068       .  S
N28          C29   1.344       .  A
N28         Cu34   2.079       .  S
C29          C30   1.390       .  A
C29          H32   1.082   1_565  S
C30          C31   1.386       .  A
C31          H33   1.076       .  S
Cu34         N37   2.079       .  S
Cu35         N45   2.068       .  S
Cu36         N38   2.072       .  S
Cu36         N44   2.071       .  S
N37          N38   1.320       .  A
N37          C41   1.343       .  A
N38          C39   1.343       .  A
C39          C40   1.387       .  A
C39          H42   1.077       .  S
C40          C41   1.389       .  A
C41          H43   1.082   1_565  S
N44          N45   1.320       .  A
N44          C48   1.345       .  A
N45          C46   1.344       .  A
C46          C47   1.385       .  A
C46          H49   1.081       .  S
C47          C48   1.387       .  A
C47         C139   1.483       .  S
C48          H50   1.080       .  S
C51          C80   1.489       .  S
C51          C56   1.487   1_655  S
C51         C214   1.367       .  D
C52          C66   1.490   1_655  S
C52          C90   1.487       .  S
C52         C213   1.367   1_554  D
N53          N54   1.320       .  A
N53          C57   1.343       .  A
N53         Cu61   2.068       .  S
N54          C55   1.344       .  A
N54         Cu60   2.079       .  S
C55          C56   1.390       .  A
C55          H58   1.082   1_455  S
C56          C57   1.386       .  A
C57          H59   1.079       .  S
Cu60         N63   2.079       .  S
Cu61         N71   2.068       .  S
Cu62         N64   2.070       .  S
Cu62         N70   2.070       .  S
N63          N64   1.320       .  A
N63          C67   1.343       .  A
N64          C65   1.344       .  A
C65          C66   1.387       .  A
C65          H68   1.078       .  S
C66          C67   1.389       .  A
C67          H69   1.083   1_455  S
N70          N71   1.321       .  A
N70          C74   1.345       .  A
N71          C72   1.345       .  A
C72          C73   1.382       .  A
C72          H75   1.081       .  S
C73          C74   1.383       .  A
C73         C130   1.474       .  S
C74          H76   1.081       .  S
N77          N78   1.320       .  A
N77          C81   1.344       .  A
N77         Cu85   2.071       .  S
N78          C79   1.343       .  A
N78         Cu84   2.079       .  S
C79          C80   1.389       .  A
C79          H82   1.083   1_655  S
C80          C81   1.387       .  A
C81          H83   1.078       .  S
Cu84         N87   2.079       .  S
Cu85         N95   2.071       .  S
Cu86         N88   2.069       .  S
Cu86         N94   2.069       .  S
N87          N88   1.320       .  A
N87          C91   1.344       .  A
N88          C89   1.343       .  A
C89          C90   1.386       .  A
C89          H92   1.078       .  S
C90          C91   1.390       .  A
C91          H93   1.082   1_655  S
N94          N95   1.321       .  A
N94          C98   1.344       .  A
N95          C96   1.345       .  A
C96          C97   1.385       .  A
C96          H99   1.081       .  S
C97          C98   1.385       .  A
C97         C115   1.480       .  S
C98         H100   1.080       .  S
O101       Cu109   2.005       .  S
O101        C111   1.277       .  A
O102       Cu109   2.011       .  S
O102        C112   1.277       .  A
O103       Cu109   2.007       .  S
O103        C113   1.278       .  A
O104       Cu109   2.016       .  S
O104        C114   1.279       .  A
O105       Cu110   2.005       .  S
O105        C114   1.277       .  A
O106       Cu110   2.011       .  S
O106        C113   1.278       .  A
O107       Cu110   2.011       .  S
O107        C112   1.278       .  A
O108       Cu110   2.014       .  S
O108        C111   1.278       .  A
Cu109      Cu110   2.374       .  S
C111        C118   1.476       .  S
C112        C127   1.472       .  S
C113        C154   1.477       .  S
C114        C142   1.481       .  S
C115        C116   1.404       .  A
C115        C120   1.414       .  A
C116        C117   1.400       .  A
C116        H125   1.083       .  S
C117        C118   1.413       .  A
C117        S121   1.804       .  S
C118        C119   1.403       .  A
C119        C120   1.400       .  A
C119        H126   1.084       .  S
C120        S122   1.803       .  S
S121        H124   1.407       .  S
S122        H123   1.407       .  S
C127        C128   1.403       .  A
C127        C132   1.417       .  A
C128        C129   1.399       .  A
C128        H137   1.084       .  S
C129        C130   1.412       .  A
C129        S133   1.803       .  S
C130        C131   1.400       .  A
C131        C132   1.400       .  A
C131        H138   1.084       .  S
C132        S134   1.808       .  S
S133        H136   1.407       .  S
S134        H135   1.397       .  S
C139        C140   1.404       .  A
C139        C144   1.415       .  A
C140        C141   1.400       .  A
C140        H149   1.083       .  S
C141        C142   1.414       .  A
C141        S145   1.802       .  S
C142        C143   1.404       .  A
C143        C144   1.400       .  A
C143        H150   1.084       .  S
C144        S146   1.802       .  S
S145        H148   1.407       .  S
S146        H147   1.407       .  S
C151        C152   1.403       .  A
C151        C156   1.414       .  A
C152        C153   1.400       .  A
C152        H161   1.084       .  S
C153        C154   1.416       .  A
C153        S157   1.805       .  S
C154        C155   1.403       .  A
C155        C156   1.399       .  A
C155        H162   1.083       .  S
C156        S158   1.803       .  S
S157        H160   1.402       .  S
S158        H159   1.407       .  S
C163        C168   1.489   1_565  S
C163        C192   1.488       .  S
C164        C202   1.488       .  S
C164        C178   1.487   1_565  S
N165        N166   1.320       .  A
N165        C169   1.344       .  A
N165       Cu173   2.070       .  S
N166        C167   1.343       .  A
N166       Cu172   2.079       .  S
C167        C168   1.389       .  A
C167        H170   1.083   1_545  S
C168        C169   1.387       .  A
C169        H171   1.077       .  S
Cu172       N175   2.079       .  S
Cu173       N183   2.070       .  S
Cu174       N176   2.067       .  S
Cu174       N182   2.066       .  S
N175        N176   1.320       .  A
N175        C179   1.344       .  A
N176        C177   1.343       .  A
C177        C178   1.386       .  A
C177        H180   1.077       .  S
C178        C179   1.390       .  A
C179        H181   1.082   1_545  S
N182        N183   1.321       .  A
N182        C186   1.344       .  A
N183        C184   1.344       .  A
C184        C185   1.386       .  A
C184        H187   1.080       .  S
C185        C186   1.384       .  A
C185        C313   1.480       .  S
C186        H188   1.081       .  S
N189        N190   1.320       .  A
N189        C193   1.343       .  A
N189       Cu197   2.068       .  S
N190        C191   1.344       .  A
N190       Cu196   2.079       .  S
C191        C192   1.390       .  A
C191        H194   1.082   1_565  S
C192        C193   1.386       .  A
C193        H195   1.076       .  S
Cu196       N199   2.079       .  S
Cu197       N207   2.068       .  S
Cu198       N200   2.072       .  S
Cu198       N206   2.071       .  S
N199        N200   1.320       .  A
N199        C203   1.343       .  A
N200        C201   1.343       .  A
C201        C202   1.387       .  A
C201        H204   1.077       .  S
C202        C203   1.389       .  A
C203        H205   1.082   1_565  S
N206        N207   1.320       .  A
N206        C210   1.345       .  A
N207        C208   1.344       .  A
C208        C209   1.385       .  A
C208        H211   1.081       .  S
C209        C210   1.387       .  A
C209        C301   1.483       .  S
C210        H212   1.080       .  S
C213        C242   1.489       .  S
C213        C218   1.487   1_655  S
C214        C228   1.490   1_655  S
C214        C252   1.487       .  S
N215        N216   1.320       .  A
N215        C219   1.343       .  A
N215       Cu223   2.068       .  S
N216        C217   1.344       .  A
N216       Cu222   2.079       .  S
C217        C218   1.390       .  A
C217        H220   1.082   1_455  S
C218        C219   1.386       .  A
C219        H221   1.079       .  S
Cu222       N225   2.079       .  S
Cu223       N233   2.068       .  S
Cu224       N226   2.070       .  S
Cu224       N232   2.070       .  S
N225        N226   1.320       .  A
N225        C229   1.343       .  A
N226        C227   1.344       .  A
C227        C228   1.387       .  A
C227        H230   1.078       .  S
C228        C229   1.389       .  A
C229        H231   1.083   1_455  S
N232        N233   1.321       .  A
N232        C236   1.345       .  A
N233        C234   1.345       .  A
C234        C235   1.382       .  A
C234        H237   1.081       .  S
C235        C236   1.383       .  A
C235        C292   1.474       .  S
C236        H238   1.081       .  S
N239        N240   1.320       .  A
N239        C243   1.344       .  A
N239       Cu247   2.071       .  S
N240        C241   1.343       .  A
N240       Cu246   2.079       .  S
C241        C242   1.389       .  A
C241        H244   1.083   1_655  S
C242        C243   1.387       .  A
C243        H245   1.078       .  S
Cu246       N249   2.079       .  S
Cu247       N257   2.071       .  S
Cu248       N250   2.069       .  S
Cu248       N256   2.069       .  S
N249        N250   1.320       .  A
N249        C253   1.344       .  A
N250        C251   1.343       .  A
C251        C252   1.386       .  A
C251        H254   1.078       .  S
C252        C253   1.390       .  A
C253        H255   1.082   1_655  S
N256        N257   1.321       .  A
N256        C260   1.344       .  A
N257        C258   1.345       .  A
C258        C259   1.385       .  A
C258        H261   1.081       .  S
C259        C260   1.385       .  A
C259        C277   1.480       .  S
C260        H262   1.080       .  S
O263       Cu271   2.005       .  S
O263        C273   1.277       .  A
O264       Cu271   2.011       .  S
O264        C274   1.277       .  A
O265       Cu271   2.007       .  S
O265        C275   1.278       .  A
O266       Cu271   2.016       .  S
O266        C276   1.279       .  A
O267       Cu272   2.005       .  S
O267        C276   1.277       .  A
O268       Cu272   2.011       .  S
O268        C275   1.278       .  A
O269       Cu272   2.011       .  S
O269        C274   1.278       .  A
O270       Cu272   2.014       .  S
O270        C273   1.278       .  A
Cu271      Cu272   2.374       .  S
C273        C280   1.476       .  S
C274        C289   1.472       .  S
C275        C316   1.477       .  S
C276        C304   1.481       .  S
C277        C278   1.404       .  A
C277        C282   1.414       .  A
C278        C279   1.400       .  A
C278        H287   1.083       .  S
C279        C280   1.413       .  A
C279        S283   1.804       .  S
C280        C281   1.403       .  A
C281        C282   1.400       .  A
C281        H288   1.084       .  S
C282        S284   1.803       .  S
S283        H286   1.407       .  S
S284        H285   1.407       .  S
C289        C290   1.403       .  A
C289        C294   1.417       .  A
C290        C291   1.399       .  A
C290        H299   1.084       .  S
C291        C292   1.412       .  A
C291        S295   1.803       .  S
C292        C293   1.400       .  A
C293        C294   1.400       .  A
C293        H300   1.084       .  S
C294        S296   1.808       .  S
S295        H298   1.407       .  S
S296        H297   1.397       .  S
C301        C302   1.404       .  A
C301        C306   1.415       .  A
C302        C303   1.400       .  A
C302        H311   1.083       .  S
C303        C304   1.414       .  A
C303        S307   1.802       .  S
C304        C305   1.404       .  A
C305        C306   1.400       .  A
C305        H312   1.084       .  S
C306        S308   1.802       .  S
S307        H310   1.407       .  S
S308        H309   1.407       .  S
C313        C314   1.403       .  A
C313        C318   1.414       .  A
C314        C315   1.400       .  A
C314        H323   1.084       .  S
C315        C316   1.416       .  A
C315        S319   1.805       .  S
C316        C317   1.403       .  A
C317        C318   1.399       .  A
C317        H324   1.083       .  S
C318        S320   1.803       .  S
S319        H322   1.402       .  S
S320        H321   1.407       .  S
