geometry optimzed in LAMMPS
_audit_creation_date              2020-11-30 
_audit_creation_method            'lammps2cif' 
_symmetry_space_group_name_H-M    'P1' 
_symmetry_Int_Tables_number       1 
_symmetry_cell_setting            triclinic 
loop_ 
_symmetry_equiv_pos_as_xyz 
  x,y,z 
_cell_length_a                    26.0655745 
_cell_length_b                    26.08310956621861 
_cell_length_c                    25.653109066411613 
_cell_angle_alpha                 90.72937211377892 
_cell_angle_beta                  88.87776717873562 
_cell_angle_gamma                 90.35819425888042 
loop_ 
_atom_site_label 
_atom_site_type_symbol 
_atom_site_fract_x 
_atom_site_fract_y 
_atom_site_fract_z 
_atom_site_charge 
N1          N  0.01116665  0.44654364  0.06311179    -0.36400
N2          N  0.01223212  0.55691820  0.06220899    -0.56900
N3          N  0.00922173  0.55410192  0.94642404    -0.36400
N4          N  0.00256280  0.44379595  0.94765217    -0.56900
C5          C  0.00480273  0.45633711  0.11498387     0.27200
C6          C  0.99937780  0.39655645  0.05480381     0.27200
C7          C  0.00178164  0.60471042  0.95588875     0.27200
C8          C  0.99912988  0.54489388  0.89535771     0.27200
C9          C  0.02075006  0.55060153  0.11373238     0.35800
C10         C  0.01825052  0.60746471  0.05245036     0.35800
C11         C  0.00626064  0.39301762  0.95671946     0.35800
C12         C  0.00615174  0.44958575  0.89523317     0.35800
C13         C  0.98955351  0.41173905  0.13984944    -0.21700
C14         C  0.98651677  0.37406080  0.10209050    -0.21700
C15         C  0.98779350  0.62807040  0.90995946    -0.21700
C16         C  0.98634910  0.59049469  0.87190070    -0.21700
C17         C  0.03226403  0.59747348  0.13679583    -0.22700
C18         C  0.03037800  0.63346131  0.09814478    -0.22700
C19         C  0.01133363  0.36638135  0.90973012    -0.22700
C20         C  0.01126439  0.40215897  0.87088550    -0.22700
C21         C  0.01400688  0.50386315  0.14101243    -0.18100
C22         C  0.00220413  0.36968521  0.00634140    -0.18100
C23         C  0.00235134  0.49681813  0.86880194    -0.18100
C24         C  0.00956370  0.63128321  0.00391780    -0.18100
H25         H  0.98169442  0.40667414  0.18105244     0.14800
H26         H  0.97594504  0.33448190  0.10886049     0.14800
H27         H  0.97976988  0.66824021  0.90420220     0.14800
H28         H  0.97676360  0.59618879  0.83153450     0.14800
H29         H  0.03998585  0.60512991  0.17746835     0.13100
H30         H  0.03658021  0.67426753  0.10327314     0.13100
H31         H  0.01425317  0.32532048  0.90393614     0.13100
H32         H  0.01416405  0.39410411  0.82944159     0.13100
H33         H  0.02762043  0.47073674  0.03565278     0.26400
H34         H  0.02501590  0.52865191  0.97220000     0.26400
N35         N  0.99346903  0.44289127  0.56044455    -0.36400
N36         N  0.99988624  0.44515756  0.44577370    -0.56900
N37         N  0.00453855  0.55557777  0.45000905    -0.36400
N38         N  0.00129467  0.55349381  0.56452643    -0.56900
C39         C  0.00306140  0.39301348  0.54876129     0.27200
C40         C  0.00308074  0.45037016  0.61183651     0.27200
C41         C  0.01711492  0.54708270  0.39903372     0.27200
C42         C  0.01783593  0.60453711  0.46196166     0.27200
C43         C  0.98744464  0.39529778  0.45298443     0.35800
C44         C  0.99322861  0.45481794  0.39457483     0.35800
C45         C  0.99024705  0.54475040  0.61550713     0.35800
C46         C  0.99465790  0.60425681  0.55696624     0.35800
C47         C  0.01855235  0.36840561  0.59339820    -0.21700
C48         C  0.01823227  0.40444455  0.63317301    -0.21700
C49         C  0.03861124  0.59128994  0.37833704    -0.21700
C50         C  0.03908818  0.62750729  0.41799540    -0.21700
C51         C  0.97277340  0.37315780  0.40608880    -0.22700
C52         C  0.97648189  0.41083939  0.36910789    -0.22700
C53         C  0.97694737  0.59025828  0.64053953    -0.22700
C54         C  0.97925993  0.62783421  0.60341020    -0.22700
C55         C  0.99443695  0.36826898  0.49995144    -0.18100
C56         C  0.99600142  0.49694548  0.64039943    -0.18100
C57         C  0.00681163  0.63031342  0.51001349    -0.18100
C58         C  0.00616210  0.50169114  0.36998480    -0.18100
H59         H  0.02823334  0.32835184  0.59717689     0.14800
H60         H  0.02777955  0.39745716  0.67331717     0.14800
H61         H  0.05169128  0.59714613  0.33853932     0.14800
H62         H  0.05251644  0.66669070  0.41455031     0.14800
H63         H  0.96176336  0.33363512  0.39902920     0.13100
H64         H  0.96875863  0.40614575  0.32801447     0.15700
H65         H  0.96713065  0.59592113  0.68138261     0.13100
H66         H  0.97174885  0.66815856  0.61017083     0.13100
H67         H  0.97597617  0.46873783  0.53605840     0.26400
H68         H  0.98222936  0.53174756  0.47351250     0.26400
O69         O  0.96510462  0.04153941  0.89283183    -0.78300
C70         C  0.85110889  0.99802358  0.00652231     0.82800
O71         O  0.02994259  0.12266118  0.03726990    -0.79400
O72         O  0.97112255  0.96427761  0.12017536    -0.80900
O73         O  0.02522740  0.87944844  0.96272566    -0.80700
O74         O  0.02324338  0.97934063  0.88213193    -0.79300
Zn75       Zn  0.95072621  0.04826620  0.96784132     1.55700
O76         O  0.96900428  0.87650811  0.02856119    -0.80700
Cd77       Cd  0.04003962  0.95769654  0.95566012     1.59700
Cd78       Cd  0.04280574  0.04502128  0.04459997     1.59600
O79         O  0.11869165  0.96948542  0.96730812    -0.80700
O80         O  0.99597343  0.00125802  0.00249025    -1.91200
Cd81       Cd  0.95261967  0.95289172  0.04415853     1.59900
O82         O  0.12017819  0.03134370  0.02798791    -0.80600
O83         O  0.87418306  0.96449260  0.03312260    -0.79300
C84         C  0.99702023  0.14701679  0.01151507     0.83300
C85         C  0.99396846  0.01354581  0.86422606     0.82900
O86         O  0.87566423  0.03207515  0.98088913    -0.78200
C87         C  0.99781699  0.85390222  0.99498973     0.83700
O88         O  0.96398979  0.12311248  0.98444524    -0.78300
C89         C  0.14331033  0.00023574  0.99694798     0.83900
C90         C  0.00053585  0.99551263  0.14383339     0.84200
O91         O  0.02786265  0.02865362  0.12016354    -0.80800
O92         O  0.98121563  0.02639706  0.38869685    -0.78300
C93         C  0.86016475  0.99246563  0.49901997     0.82800
O94         O  0.03654199  0.12532150  0.52187762    -0.79400
O95         O  0.97289412  0.97992702  0.62375579    -0.80900
O96         O  0.03975996  0.87584640  0.48221861    -0.80700
O97         O  0.03847291  0.96259041  0.38802407    -0.79300
Zn98       Zn  0.96094052  0.04066491  0.46126312     1.55700
O99         O  0.97540491  0.87808814  0.54077219    -0.80700
Cd100      Cd  0.05201281  0.95260479  0.46472034     1.59700
Cd101      Cd  0.04923242  0.04973988  0.54128455     1.59600
O102        O  0.12863910  0.96981385  0.47540038    -0.80700
O103        O  0.00480588  0.99978253  0.50373608    -1.91200
Cd104      Cd  0.95954937  0.95632939  0.54907174     1.59900
O105        O  0.12715980  0.03435675  0.53265513    -0.80600
O106        O  0.88168692  0.96643287  0.53412960    -0.79300
C107        C  0.99982258  0.14540996  0.49753458     0.83300
C108        C  0.01007249  0.99427155  0.36506862     0.82900
O109        O  0.88673379  0.02010252  0.46809809    -0.78200
C110        C  0.00788087  0.85328199  0.51257734     0.83700
O111        O  0.96635577  0.11785524  0.47464632    -0.78300
C112        C  0.15187045  0.00239507  0.50394072     0.83900
C113        C  0.99982846  0.01577254  0.64378530     0.84200
O114        O  0.02892598  0.04520880  0.61732073    -0.80800
N115        N  0.55232762  0.99894632  0.05034636    -0.36400
N116        N  0.44197502  0.99876642  0.05229125    -0.56900
N117        N  0.44344098  0.01226193  0.93770806    -0.36400
N118        N  0.55431996  0.00857727  0.93631565    -0.56900
C119        C  0.54271513  0.98444466  0.10021197     0.27200
C120        C  0.60176822  0.98720671  0.03878249     0.27200
C121        C  0.39334290  0.00062019  0.94696262     0.27200
C122        C  0.45279409  0.00636059  0.88563615     0.27200
C123        C  0.44963084  0.00340652  0.10431675     0.35800
C124        C  0.39172044  0.00819621  0.04462554     0.35800
C125        C  0.60505070  0.01386477  0.94543439     0.35800
C126        C  0.54748455  0.02033536  0.88563983     0.35800
C127        C  0.58647596  0.96315750  0.12047664    -0.21700
C128        C  0.62367316  0.96471345  0.08170432    -0.21700
C129        C  0.37040861  0.98807657  0.90007828    -0.21700
C130        C  0.40778302  0.99175754  0.86151932    -0.21700
C131        C  0.40392836  0.01544241  0.12987334    -0.22700
C132        C  0.36722608  0.01830295  0.09213588    -0.22700
C133        C  0.63062283  0.02911388  0.90026369    -0.22700
C134        C  0.59421969  0.03292750  0.86234778    -0.22700
C135        C  0.49672331  0.99363407  0.12909631    -0.18100
C136        C  0.62911932  0.00067689  0.99254537    -0.18100
C137        C  0.50048754  0.01499236  0.85904017    -0.18100
C138        C  0.36683070  0.00408548  0.99594421    -0.18100
H139        H  0.59132051  0.94873360  0.15943654     0.14800
H140        H  0.66284352  0.95184858  0.08517099     0.14800
H141        H  0.33067959  0.97761397  0.89416003     0.14800
H142        H  0.40235941  0.98448731  0.82035520     0.14800
H143        H  0.39754517  0.02075894  0.17140261     0.13100
H144        H  0.32695725  0.02638818  0.09895176     0.13100
H145        H  0.67145124  0.03536037  0.89479034     0.13100
H146        H  0.60145340  0.04281598  0.82200445     0.13100
H147        H  0.52895314  0.02177520  0.02806108     0.26400
H148        H  0.46829094  0.02804834  0.96477143     0.26400
N149        N  0.56124202  0.99669152  0.55067526    -0.36400
N150        N  0.56109785  0.99532002  0.43465257    -0.56900
N151        N  0.45036020  0.99789518  0.43766322    -0.36400
N152        N  0.45081536  0.00512246  0.55324843    -0.56900
C153        C  0.61187543  0.00302662  0.53970726     0.27200
C154        C  0.55349358  0.00760851  0.60218403     0.27200
C155        C  0.45873875  0.00357948  0.38562265     0.27200
C156        C  0.40043688  0.00858861  0.44804330     0.27200
C157        C  0.61159727  0.98729542  0.44248190     0.35800
C158        C  0.55311889  0.98770741  0.38298464     0.35800
C159        C  0.45802867  0.00080874  0.60522227     0.35800
C160        C  0.39971332  0.00101133  0.54587033     0.35800
C161        C  0.63675458  0.01727779  0.58509979    -0.21700
C162        C  0.60002088  0.02013247  0.62435442    -0.21700
C163        C  0.41326267  0.01750742  0.36266701    -0.21700
C164        C  0.37654192  0.02042748  0.40187216    -0.21700
C165        C  0.63592900  0.97516314  0.39536041    -0.22700
C166        C  0.59895806  0.97533601  0.35781132    -0.22700
C167        C  0.41124541  0.99476250  0.63098199    -0.22700
C168        C  0.37438108  0.99495385  0.59351855    -0.22700
C169        C  0.63699923  0.99384254  0.49070805    -0.18100
C170        C  0.50594457  0.00498310  0.63024429    -0.18100
C171        C  0.37486551  0.00504939  0.49733588    -0.18100
C172        C  0.50557396  0.99438644  0.35772762    -0.18100
H173        H  0.67733616  0.02465694  0.58964487     0.14800
H174        H  0.60685646  0.03021914  0.66469185     0.14800
H175        H  0.40697381  0.02436885  0.32177061     0.14800
H176        H  0.33660943  0.02991398  0.39678773     0.14800
H177        H  0.67628398  0.96745325  0.38860913     0.13100
H178        H  0.60521930  0.96774617  0.31660557     0.13100
H179        H  0.40431757  0.99103095  0.67250438     0.13100
H180        H  0.33346459  0.99143913  0.60070069     0.13100
H181        H  0.53478989  0.98060029  0.52551297     0.26400
H182        H  0.47541495  0.98214307  0.46384471     0.26400
C183        C  0.51426420  0.96671852  0.77382166    -0.01600
C184        C  0.50219773  0.01307418  0.80020284     0.08100
C185        C  0.49215222  0.05708850  0.77061094    -0.01700
C186        C  0.49432042  0.05472200  0.71540230    -0.01700
C187        C  0.50599763  0.00819126  0.68905666     0.08200
C188        C  0.51583370  0.96420226  0.71870189    -0.01900
Br189      Br  0.53018868  0.89998654  0.68356251    -0.00500
Br190      Br  0.52798965  0.90628827  0.81367903    -0.00500
Br191      Br  0.48151042  0.11528618  0.67544903    -0.00500
Br192      Br  0.47553371  0.12065405  0.80589818    -0.00500
C193        C  0.52205569  0.03615401  0.27000712    -0.01600
C194        C  0.50462199  0.99340966  0.29881327     0.08100
C195        C  0.48454923  0.95050150  0.27159475    -0.01700
C196        C  0.48171408  0.95048199  0.21650050    -0.01700
C197        C  0.49871198  0.99344725  0.18783587     0.08200
C198        C  0.51929418  0.03607413  0.21497576    -0.01900
Br199      Br  0.54324544  0.09486767  0.17641495    -0.00500
Br200      Br  0.54864774  0.09555416  0.30620291    -0.00500
Br201      Br  0.45558776  0.89111649  0.17993270    -0.00500
Br202      Br  0.46128019  0.89144361  0.31003902    -0.00500
C203        C  0.23622095  0.05053148  0.50212108    -0.01600
C204        C  0.20903622  0.00329880  0.50303256     0.08100
C205        C  0.23698466  0.95684006  0.50152694    -0.01700
C206        C  0.29093048  0.95776506  0.49766245    -0.01700
C207        C  0.31765272  0.00477823  0.49825990     0.08200
C208        C  0.29029978  0.05109649  0.50122935    -0.01900
Br209      Br  0.32740427  0.11530900  0.50393174    -0.00500
Br210      Br  0.20030309  0.11489838  0.49848691    -0.00500
Br211      Br  0.32886672  0.89451191  0.49174328    -0.00500
Br212      Br  0.20245884  0.89140905  0.50794010    -0.00500
C213        C  0.72256196  0.03787373  0.48068666    -0.01600
C214        C  0.69432177  0.99267565  0.48992087     0.08100
C215        C  0.72025327  0.94675575  0.49981176    -0.01700
C216        C  0.77431442  0.94617188  0.50190775    -0.01700
C217        C  0.80304162  0.99195864  0.49449893     0.08200
C218        C  0.77654469  0.03773310  0.48279768    -0.01900
Br219      Br  0.81275919  0.10175025  0.47167405    -0.00500
Br220      Br  0.68657190  0.10048913  0.46634502    -0.00500
Br221      Br  0.80819639  0.88157751  0.51202677    -0.00500
Br222      Br  0.68103934  0.88455356  0.51013305    -0.00500
C223        C  0.28229154  0.95792631  0.01062034    -0.01600
C224        C  0.30930873  0.00275011  0.99608383     0.08100
C225        C  0.28166128  0.04619694  0.98091054    -0.01700
C226        C  0.22765533  0.04434448  0.97882038    -0.01700
C227        C  0.20044131  0.00032745  0.99530515     0.08200
C228        C  0.22809635  0.95723836  0.01163690    -0.01900
Br229      Br  0.19185960  0.89825697  0.03812795    -0.00500
Br230      Br  0.31972883  0.89724092  0.02843229    -0.00500
Br231      Br  0.19118280  0.10098488  0.95010218    -0.00500
Br232      Br  0.31792797  0.10877739  0.96431324    -0.00500
C233        C  0.76842549  0.95760667  0.97807094    -0.01600
C234        C  0.79431223  0.99755956  0.00446878     0.08100
C235        C  0.76599944  0.03871025  0.02624990    -0.01700
C236        C  0.71232275  0.04033977  0.02105250    -0.01700
C237        C  0.68643191  0.00056191  0.99437205     0.08200
C238        C  0.71465276  0.95909647  0.97302178    -0.01900
Br239      Br  0.67936545  0.90399007  0.93758139    -0.00500
Br240      Br  0.80681633  0.90138184  0.94774080    -0.00500
Br241      Br  0.67399168  0.09715074  0.05055579    -0.00500
Br242      Br  0.80061053  0.09166948  0.06543141    -0.00500
C243        C  0.04410959  0.02611449  0.72769265    -0.01600
C244        C  0.99797431  0.02283154  0.70001826     0.08100
C245        C  0.95010682  0.02384280  0.72643565    -0.01700
C246        C  0.94832351  0.02237927  0.78087622    -0.01700
C247        C  0.99460249  0.02149999  0.80834543     0.08200
C248        C  0.04225653  0.02632650  0.78205989    -0.01900
Br249      Br  0.10515882  0.03402978  0.82046160    -0.00500
Br250      Br  0.11031569  0.02659130  0.69212301    -0.00500
Br251      Br  0.88253212  0.01816024  0.81683378    -0.00500
Br252      Br  0.88704090  0.02820043  0.68820704    -0.00500
C253        C  0.05065669  0.00445117  0.22526525    -0.01600
C254        C  0.00350236  0.99331456  0.20066723     0.08100
C255        C  0.95926362  0.98087193  0.23095514    -0.01700
C256        C  0.96268610  0.97863946  0.28508428    -0.01700
C257        C  0.00869214  0.99265239  0.30897228     0.08200
C258        C  0.05241125  0.00623103  0.27962868    -0.01900
Br259      Br  0.11371561  0.02970281  0.31418115    -0.00500
Br260      Br  0.11413351  0.01460382  0.18607695    -0.00500
Br261      Br  0.90465935  0.95532193  0.32693786    -0.00500
Br262      Br  0.89268315  0.97010345  0.20033340    -0.00500
C263        C  0.04635151  0.76935944  0.53830970    -0.01600
C264        C  0.00736187  0.79646696  0.51338631     0.08100
C265        C  0.96856059  0.76917255  0.48723857    -0.01700
C266        C  0.96825029  0.71513707  0.48650216    -0.01700
C267        C  0.00750427  0.68781494  0.51096767     0.08200
C268        C  0.04677518  0.71522365  0.53667368    -0.01900
Br269      Br  0.10170503  0.67861894  0.56879459    -0.00500
Br270      Br  0.09847006  0.80657711  0.57565679    -0.00500
Br271      Br  0.91341847  0.67850247  0.45250682    -0.00500
Br272      Br  0.91673770  0.80609669  0.45069927    -0.00500
C273        C  0.03652679  0.23047160  0.47164538    -0.01600
C274        C  0.99663891  0.20213033  0.49577233     0.08100
C275        C  0.95530164  0.22826716  0.52026212    -0.01700
C276        C  0.95397560  0.28237373  0.52062807    -0.01700
C277        C  0.99462734  0.31078676  0.49766145     0.08200
C278        C  0.03594432  0.28450076  0.47318258    -0.01900
Br279      Br  0.09278247  0.32244364  0.44308964    -0.00500
Br280      Br  0.09140535  0.19501965  0.43503406    -0.00500
Br281      Br  0.89635565  0.31772195  0.55254023    -0.00500
Br282      Br  0.90188033  0.19005661  0.55584305    -0.00500
C283        C  0.95152398  0.49359652  0.72924189    -0.01600
C284        C  0.99739427  0.49607188  0.69909614     0.08100
C285        C  0.04478510  0.49827422  0.72482520    -0.01700
C286        C  0.04631018  0.49800267  0.77989724    -0.01700
C287        C  0.00047647  0.49597667  0.81006696     0.08200
C288        C  0.95305294  0.49362941  0.78437677    -0.01900
Br289      Br  0.89016280  0.49080074  0.82506153    -0.00500
Br290      Br  0.88653890  0.49048353  0.69471335    -0.00500
Br291      Br  0.11134584  0.50031327  0.81437109    -0.00500
Br292      Br  0.10776147  0.50188287  0.68428087    -0.00500
C293        C  0.05270346  0.48160574  0.22819361    -0.01600
C294        C  0.01311291  0.50484076  0.19998787     0.08100
C295        C  0.97126307  0.52681977  0.22797183    -0.01700
C296        C  0.96961367  0.52666333  0.28311897    -0.01700
C297        C  0.00896974  0.50320240  0.31122706     0.08200
C298        C  0.05042890  0.48046800  0.28335805    -0.01900
Br299      Br  0.10436252  0.44783332  0.32102523    -0.00500
Br300      Br  0.11016645  0.45098586  0.19117939    -0.00500
Br301      Br  0.91243836  0.55746523  0.32040323    -0.00500
Br302      Br  0.91458110  0.55490349  0.19062264    -0.00500
C303        C  0.95600960  0.76678128  0.00617926    -0.01600
C304        C  0.00049371  0.79661146  0.99494935     0.08100
C305        C  0.04806309  0.77119846  0.98677919    -0.01700
C306        C  0.05106500  0.71747178  0.99104089    -0.01700
C307        C  0.00690726  0.68842369  0.00307734     0.08200
C308        C  0.95952364  0.71313719  0.01098575    -0.01900
Br309      Br  0.89933676  0.67280330  0.02830992    -0.00500
Br310      Br  0.88907182  0.79799666  0.01142309    -0.00500
Br311      Br  0.11602171  0.68304972  0.98142909    -0.00500
Br312      Br  0.11031225  0.80878246  0.97106478    -0.00500
C313        C  0.04657099  0.28505038  0.00936458    -0.01600
C314        C  0.00054053  0.31266099  0.00792008     0.08100
C315        C  0.95321052  0.28648150  0.00899580    -0.01700
C316        C  0.95178368  0.23256066  0.01155209    -0.01700
C317        C  0.99805154  0.20422919  0.01187649     0.08200
C318        C  0.04554718  0.23115988  0.01094489    -0.01900
Br319      Br  0.11016475  0.19551607  0.00915063    -0.00500
Br320      Br  0.11124235  0.32173030  0.00860794    -0.00500
Br321      Br  0.88589105  0.19874911  0.01753912    -0.00500
Br322      Br  0.89034769  0.32517490  0.00758441    -0.00500
loop_ 
_geom_bond_atom_site_label_1 
_geom_bond_atom_site_label_2 
_geom_bond_distance 
_geom_bond_site_symmetry_2 
_ccdc_geom_bond_type 
N1            C6   1.353   1_455  A
N1            C5   1.359       .  A
N1           H33   1.037       .  S
N2            C9   1.357       .  A
N2           C10   1.353       .  A
N3            C8   1.359   1_455  A
N3            C7   1.354       .  A
N3           H34   1.036       .  S
N4           C11   1.352       .  A
N4           C12   1.356       .  A
C5           C13   1.386   1_455  A
C5           C21   1.422       .  A
C6           C22   1.420   1_655  A
C6           C14   1.388       .  A
C7           C15   1.389   1_455  A
C7           C24   1.423   1_556  A
C8           C23   1.422   1_655  A
C8           C16   1.385       .  A
C9           C21   1.422       .  A
C9           C17   1.385       .  A
C10          C24   1.421       .  A
C10          C18   1.388       .  A
C11          C19   1.388       .  A
C11          C22   1.420   1_556  A
C12          C20   1.385       .  A
C12          C23   1.419       .  A
C13          C14   1.374       .  A
C13          H25   1.082       .  S
C14          H26   1.082       .  S
C15          C16   1.375       .  A
C15          H27   1.082       .  S
C16          H28   1.082       .  S
C17          C18   1.376       .  A
C17          H29   1.082       .  S
C18          H30   1.082       .  S
C19          C20   1.374       .  A
C19          H31   1.082       .  S
C20          H32   1.082       .  S
C21         C294   1.513       .  S
C22         C314   1.489       .  S
C23         C287   1.508       .  S
C24         C307   1.493       .  S
N35          C40   1.358   1_655  A
N35          C39   1.355   1_655  A
N35          H67   1.039       .  S
N36          C43   1.352       .  A
N36          C44   1.355       .  A
N37          C42   1.354       .  A
N37          C41   1.358       .  A
N37          H68   1.039   1_455  S
N38          C45   1.355   1_455  A
N38          C46   1.353   1_455  A
C39          C47   1.388       .  A
C39          C55   1.423   1_455  A
C40          C56   1.422   1_455  A
C40          C48   1.386       .  A
C41          C49   1.386       .  A
C41          C58   1.421       .  A
C42          C57   1.422       .  A
C42          C50   1.388       .  A
C43          C55   1.419       .  A
C43          C51   1.387       .  A
C44          C58   1.419   1_655  A
C44          C52   1.385       .  A
C45          C53   1.385       .  A
C45          C56   1.418       .  A
C46          C54   1.387       .  A
C46          C57   1.420   1_655  A
C47          C48   1.378       .  A
C47          H59   1.082       .  S
C48          H60   1.082       .  S
C49          C50   1.380       .  A
C49          H61   1.082       .  S
C50          H62   1.082       .  S
C51          C52   1.376       .  A
C51          H63   1.082       .  S
C52          H64   1.082       .  S
C53          C54   1.376       .  A
C53          H65   1.082       .  S
C54          H66   1.082       .  S
C55         C277   1.500       .  S
C56         C284   1.507       .  S
C57         C267   1.500       .  S
C58         C297   1.509       .  S
O69          C85   1.269       .  A
O69         Zn75   1.959       .  S
C70         C234   1.482       .  S
C70          O86   1.274   1_564  A
C70          O83   1.277       .  A
O71          C84   1.271   1_455  A
O71         Cd78   2.066       .  S
O72          C90   1.272   1_655  A
O72         Cd81   2.036       .  S
O73          C87   1.275   1_455  A
O73         Cd77   2.084       .  S
O74          C85   1.274   1_465  A
O74         Cd77   2.032       .  S
Zn75         O86   2.021       .  S
Zn75         O88   2.022       .  S
Zn75         O80   1.942   1_556  S
O76          C87   1.273   1_554  A
O76         Cd81   2.073       .  S
Cd77         O79   2.098       .  S
Cd77         O80   1.995   1_466  S
Cd78         O82   2.085       .  S
Cd78         O91   2.020       .  S
Cd78         O80   1.991   1_455  S
O79          C89   1.277   1_565  A
O80         Cd81   1.995   1_545  S
Cd81         O83   2.094       .  S
O82          C89   1.275   1_554  A
C84         C317   1.492       .  S
C84          O88   1.272   1_554  A
C85         C247   1.451       .  S
C87         C304   1.496   1_655  S
C89         C227   1.489       .  S
C90         C254   1.463       .  S
C90          O91   1.270   1_565  A
O92         C108   1.270   1_645  A
O92         Zn98   1.957       .  S
C93         C217   1.496       .  S
C93         O109   1.271   1_565  A
C93         O106   1.276       .  A
O94         C107   1.272   1_455  A
O94        Cd101   2.070       .  S
O95         C113   1.275   1_565  A
O95        Cd104   2.041       .  S
O96         C110   1.274       .  A
O96        Cd100   2.079       .  S
O97         C108   1.271       .  A
O97        Cd100   2.026       .  S
Zn98        O109   2.009       .  S
Zn98        O111   2.043       .  S
Zn98        O103   1.930   1_645  S
O99         C110   1.276   1_655  A
O99        Cd104   2.092       .  S
Cd100       O102   2.067       .  S
Cd100       O103   1.992       .  S
Cd101       O105   2.080       .  S
Cd101       O114   2.016       .  S
Cd101       O103   1.990   1_545  S
O102        C112   1.273   1_565  A
O103       Cd104   1.998   1_455  S
Cd104       O106   2.092       .  S
O105        C112   1.275       .  A
C107        C274   1.484       .  S
C107        O111   1.274       .  A
C108        C257   1.440       .  S
C110        C264   1.482       .  S
C112        C204   1.490       .  S
C113        C244   1.452       .  S
C113        O114   1.269   1_655  A
N115        C120   1.353       .  A
N115        C119   1.357       .  A
N115        H147   1.039   1_565  S
N116        C123   1.357   1_565  A
N116        C124   1.353   1_565  A
N117        C122   1.360       .  A
N117        C121   1.356       .  A
N117        H148   1.038       .  S
N118        C125   1.353       .  A
N118        C126   1.355       .  A
C119        C127   1.385       .  A
C119        C135   1.417       .  A
C120        C136   1.419   1_564  A
C120        C128   1.388       .  A
C121        C129   1.388   1_545  A
C121        C138   1.424       .  A
C122        C137   1.424       .  A
C122        C130   1.386   1_545  A
C123        C135   1.419   1_545  A
C123        C131   1.384       .  A
C124        C138   1.421   1_554  A
C124        C132   1.388       .  A
C125        C133   1.387       .  A
C125        C136   1.420       .  A
C126        C134   1.386       .  A
C126        C137   1.419       .  A
C127        C128   1.376       .  A
C127        H139   1.082       .  S
C128        H140   1.082       .  S
C129        C130   1.378       .  A
C129        H141   1.082       .  S
C130        H142   1.082       .  S
C131        C132   1.377       .  A
C131        H143   1.082       .  S
C132        H144   1.082       .  S
C133        C134   1.377       .  A
C133        H145   1.082       .  S
C134        H146   1.082       .  S
C135        C197   1.509       .  S
C136        C237   1.496       .  S
C137        C184   1.509       .  S
C138        C224   1.499       .  S
N149        C154   1.360   1_565  A
N149        C153   1.354   1_565  A
N149        H181   1.037       .  S
N150        C157   1.353       .  A
N150        C158   1.358       .  A
N151        C156   1.353   1_565  A
N151        C155   1.358   1_565  A
N151        H182   1.036       .  S
N152        C159   1.356       .  A
N152        C160   1.352       .  A
C153        C161   1.389       .  A
C153        C169   1.424   1_545  A
C154        C170   1.423       .  A
C154        C162   1.385       .  A
C155        C163   1.386       .  A
C155        C172   1.423   1_545  A
C156        C171   1.422       .  A
C156        C164   1.388       .  A
C157        C169   1.422       .  A
C157        C165   1.388       .  A
C158        C172   1.422       .  A
C158        C166   1.385       .  A
C159        C167   1.385   1_545  A
C159        C170   1.418       .  A
C160        C168   1.388   1_545  A
C160        C171   1.420       .  A
C161        C162   1.378       .  A
C161        H173   1.082       .  S
C162        H174   1.082       .  S
C163        C164   1.376       .  A
C163        H175   1.082       .  S
C164        H176   1.082       .  S
C165        C166   1.376       .  A
C165        H177   1.082       .  S
C166        H178   1.082       .  S
C167        C168   1.372       .  A
C167        H179   1.082       .  S
C168        H180   1.082       .  S
C169        C214   1.494       .  S
C170        C187   1.510       .  S
C171        C207   1.491       .  S
C172        C194   1.512       .  S
C183        C184   1.412   1_565  A
C183        C188   1.414       .  A
C183       Br190   1.929       .  S
C184        C185   1.413       .  A
C185        C186   1.417       .  A
C185       Br192   1.927       .  S
C186        C187   1.414       .  A
C186       Br191   1.928       .  S
C187        C188   1.412   1_545  A
C188       Br189   1.927       .  S
C193        C194   1.413   1_545  A
C193        C198   1.415       .  A
C193       Br200   1.928       .  S
C194        C195   1.415       .  A
C195        C196   1.417       .  A
C195       Br202   1.928       .  S
C196        C197   1.412       .  A
C196       Br201   1.928       .  S
C197        C198   1.413   1_565  A
C198       Br199   1.929       .  S
C203        C204   1.418       .  A
C203        C208   1.409       .  A
C203       Br210   1.932       .  S
C204        C205   1.418   1_545  A
C205        C206   1.408       .  A
C205       Br212   1.932       .  S
C206        C207   1.407   1_565  A
C206       Br211   1.932       .  S
C207        C208   1.407       .  A
C208       Br209   1.930       .  S
C213        C214   1.406   1_545  A
C213        C218   1.409       .  A
C213       Br220   1.932       .  S
C214        C215   1.407       .  A
C215        C216   1.411       .  A
C215       Br222   1.930       .  S
C216        C217   1.418       .  A
C216       Br221   1.930       .  S
C217        C218   1.421   1_565  A
C218       Br219   1.935       .  S
C223        C224   1.412   1_564  A
C223        C228   1.412       .  A
C223       Br230   1.929       .  S
C224        C225   1.410       .  A
C225        C226   1.410       .  A
C225       Br232   1.929       .  S
C226        C227   1.411       .  A
C226       Br231   1.924       .  S
C227        C228   1.411   1_546  A
C228       Br229   1.925       .  S
C233        C234   1.411   1_556  A
C233        C238   1.411       .  A
C233       Br240   1.928       .  S
C234        C235   1.410   1_565  A
C235        C236   1.409       .  A
C235       Br242   1.928       .  S
C236        C237   1.411   1_554  A
C236       Br241   1.931       .  S
C237        C238   1.411   1_545  A
C238       Br239   1.929       .  S
C243        C244   1.410   1_455  A
C243        C248   1.395       .  A
C243       Br250   1.936       .  S
C244        C245   1.408       .  A
C245        C246   1.397       .  A
C245       Br252   1.935       .  S
C246        C247   1.409       .  A
C246       Br251   1.934       .  S
C247        C248   1.407   1_655  A
C248       Br249   1.937       .  S
C253        C254   1.419   1_545  A
C253        C258   1.396       .  A
C253       Br260   1.938       .  S
C254        C255   1.416   1_455  A
C255        C256   1.395       .  A
C255       Br262   1.936       .  S
C256        C257   1.402   1_655  A
C256       Br261   1.937       .  S
C257        C258   1.400   1_565  A
C258       Br259   1.935       .  S
C263        C264   1.410       .  A
C263        C268   1.412       .  A
C263       Br270   1.928       .  S
C264        C265   1.409   1_455  A
C265        C266   1.409       .  A
C265       Br272   1.929       .  S
C266        C267   1.412   1_655  A
C266       Br271   1.930       .  S
C267        C268   1.414       .  A
C268       Br269   1.930       .  S
C273        C274   1.410   1_455  A
C273        C278   1.409       .  A
C273       Br280   1.930       .  S
C274        C275   1.411       .  A
C275        C276   1.412       .  A
C275       Br282   1.929       .  S
C276        C277   1.413       .  A
C276       Br281   1.930       .  S
C277        C278   1.413   1_655  A
C278       Br279   1.930       .  S
C283        C284   1.413       .  A
C283        C288   1.416       .  A
C283       Br290   1.928       .  S
C284        C285   1.412   1_655  A
C285        C286   1.414       .  A
C285       Br292   1.928       .  S
C286        C287   1.412       .  A
C286       Br291   1.928       .  S
C287        C288   1.413   1_455  A
C288       Br289   1.928       .  S
C293        C294   1.416       .  A
C293        C298   1.416       .  A
C293       Br300   1.929       .  S
C294        C295   1.414   1_455  A
C295        C296   1.415       .  A
C295       Br302   1.930       .  S
C296        C297   1.412   1_655  A
C296       Br301   1.929       .  S
C297        C298   1.413       .  A
C298       Br299   1.930       .  S
C303        C304   1.419   1_654  A
C303        C308   1.410       .  A
C303       Br310   1.932       .  S
C304        C305   1.420       .  A
C305        C306   1.410       .  A
C305       Br312   1.929       .  S
C306        C307   1.405   1_556  A
C306       Br311   1.931       .  S
C307        C308   1.407   1_455  A
C308       Br309   1.931       .  S
C313        C314   1.405       .  A
C313        C318   1.407       .  A
C313       Br320   1.933       .  S
C314        C315   1.406   1_455  A
C315        C316   1.409       .  A
C315       Br322   1.931       .  S
C316        C317   1.419       .  A
C316       Br321   1.930       .  S
C317        C318   1.420   1_655  A
C318       Br319   1.928       .  S
