geometry optimzed in LAMMPS
_audit_creation_date              2020-11-30 
_audit_creation_method            'lammps2cif' 
_symmetry_space_group_name_H-M    'P1' 
_symmetry_Int_Tables_number       1 
_symmetry_cell_setting            triclinic 
loop_ 
_symmetry_equiv_pos_as_xyz 
  x,y,z 
_cell_length_a                    25.61048213 
_cell_length_b                    25.095323855752735 
_cell_length_c                    25.240260029663418 
_cell_angle_alpha                 84.98412150582142 
_cell_angle_beta                  88.06749141561163 
_cell_angle_gamma                 89.64368326209359 
loop_ 
_atom_site_label 
_atom_site_type_symbol 
_atom_site_fract_x 
_atom_site_fract_y 
_atom_site_fract_z 
_atom_site_charge 
N1          N  0.00119612  0.45032537  0.06056920    -0.35200
N2          N  0.02705250  0.56018803  0.04182658    -0.55800
N3          N  0.02598516  0.55133685  0.92633860    -0.35200
N4          N  0.99571640  0.44069507  0.94597954    -0.55800
C5          C  0.99427769  0.46513822  0.11058072     0.28300
C6          C  0.97925992  0.40177496  0.05988592     0.28300
C7          C  0.02298039  0.60489871  0.92815659     0.28300
C8          C  0.01127266  0.54064896  0.87736469     0.28300
C9          C  0.03267594  0.55564652  0.09505922     0.37000
C10         C  0.04303780  0.60966151  0.02390773     0.37000
C11         C  0.99524755  0.38853111  0.96411325     0.37000
C12         C  0.00646817  0.44223176  0.89309489     0.37000
C13         C  0.96765033  0.42531504  0.14197685    -0.20500
C14         C  0.95813094  0.38528332  0.10988131    -0.20500
C15         C  0.00739142  0.62850168  0.87934554    -0.20500
C16         C  0.00035897  0.58790475  0.84717656    -0.20500
C17         C  0.05277970  0.60245095  0.11120677    -0.21600
C18         C  0.05911157  0.63688486  0.06605072    -0.21600
C19         C  0.00506821  0.35686783  0.92241090    -0.21600
C20         C  0.01167725  0.39100824  0.87725424    -0.21600
C21         C  0.01455255  0.51186362  0.12939728    -0.16900
C22         C  0.98419583  0.36910583  0.01746427    -0.16900
C23         C  0.00908823  0.48941133  0.85870066    -0.16900
C24         C  0.03481708  0.63336925  0.97213629    -0.16900
H25         H  0.95724514  0.42443312  0.18394910     0.16000
H26         H  0.93929654  0.34753212  0.12228456     0.16000
H27         H  0.00175585  0.67067716  0.86794498     0.16000
H28         H  0.98801566  0.59258486  0.80642602     0.16000
H29         H  0.05997085  0.61159354  0.15143685     0.14300
H30         H  0.07204152  0.67798628  0.06461759     0.14300
H31         H  0.00714510  0.31368337  0.92412469     0.14300
H32         H  0.01974903  0.37951851  0.83743855     0.14300
H33         H  0.02604866  0.46798050  0.03083288     0.27500
H34         H  0.04137557  0.52415608  0.95519676     0.27500
N35         N  0.00584769  0.55064894  0.55042849    -0.35200
N36         N  0.00126982  0.43086349  0.55383992    -0.55800
N37         N  0.00550002  0.43849762  0.43906227    -0.35200
N38         N  0.00281549  0.55835579  0.43607031    -0.55800
C39         C  0.99806458  0.53747694  0.60322463     0.28300
C40         C  0.99761079  0.60428170  0.54118080     0.28300
C41         C  0.99996853  0.38450514  0.44834693     0.28300
C42         C  0.00319681  0.45144737  0.38600528     0.28300
C43         C  0.00490974  0.43654075  0.60638919     0.37000
C44         C  0.00328606  0.37760859  0.54790700     0.37000
C45         C  0.00803897  0.61128900  0.44222791     0.37000
C46         C  0.01121592  0.55240135  0.38368909     0.37000
C47         C  0.98589881  0.58348067  0.62801399    -0.20500
C48         C  0.98533989  0.62533001  0.58901455    -0.20500
C49         C  0.99487729  0.36291092  0.40007023    -0.20500
C50         C  0.99675834  0.40488349  0.36096979    -0.20500
C51         C  0.00841108  0.38648436  0.63415820    -0.21600
C52         C  0.00690346  0.34934283  0.59735810    -0.21600
C53         C  0.01930184  0.63906751  0.39341066    -0.21600
C54         C  0.02128567  0.60199761  0.35648871    -0.21600
C55         C  0.00295626  0.48568536  0.63053345    -0.16900
C56         C  0.00205773  0.63521959  0.49112098    -0.16900
C57         C  0.00858716  0.50362742  0.35898551    -0.16900
C58         C  0.00092968  0.35383837  0.49877598    -0.16900
H59         H  0.97781923  0.58665543  0.66999492     0.16000
H60         H  0.97677185  0.66662203  0.59532256     0.16000
H61         H  0.99068115  0.32115536  0.39344354     0.16000
H62         H  0.99410640  0.40129507  0.31872211     0.16000
H63         H  0.01117018  0.37748388  0.67669951     0.14300
H64         H  0.00838605  0.30641361  0.60626215     0.14300
H65         H  0.02594598  0.68157339  0.38519660     0.14300
H66         H  0.02954175  0.61069649  0.31429119     0.14300
H67         H  0.02092862  0.52506964  0.52372555     0.27500
H68         H  0.01383206  0.46520437  0.46637638     0.27500
O69         O  0.87825389  0.00782521  0.95707548    -0.79500
O70         O  0.11252228  0.96717245  0.96500712    -0.64200
O71         O  0.96667392  0.96544001  0.00312906    -1.10800
C72         C  0.00241989  0.14168773  0.04321123     1.07400
O73         O  0.12630910  0.99443338  0.04386724    -0.77400
O74         O  0.05470539  0.03003066  0.11123609    -0.65000
Ni75       Ni  0.91638477  0.94229585  0.95695986     1.34900
C76         C  0.00902144  0.01457312  0.12566666     0.86100
O77         O  0.03770805  0.89097650  0.96708291    -0.78000
O78         O  0.95228108  0.87565619  0.95527154    -0.88200
C79         C  0.14366544  0.97747013  0.00083281     0.85700
O80         O  0.94732089  0.96857513  0.89045249    -0.66400
O81         O  0.04938538  0.12541950  0.04935262    -0.85700
C82         C  0.99201564  0.98631253  0.87528597     0.86500
C83         C  0.99954219  0.85999954  0.96019877     1.08100
H84         H  0.04039265  0.06028273  0.96579352     0.39900
O85         O  0.03598549  0.03724642  0.99822177    -1.08400
O86         O  0.97125837  0.01600766  0.09408090    -0.65000
Ni87       Ni  0.96359527  0.03835452  0.01920530     1.26300
O88         O  0.02993109  0.98763097  0.90656066    -0.65300
O89         O  0.96468767  0.11153395  0.03338896    -0.77600
C90         C  0.85902892  0.02329034  0.99994989     0.85900
O91         O  0.88940992  0.03669839  0.03517750    -0.64700
Ni92       Ni  0.08604351  0.05910222  0.04567408     1.27400
Ni93       Ni  0.03871938  0.96467422  0.98143360     1.26100
H94         H  0.96284087  0.94261628  0.03600218     0.40400
O95         O  0.12039734  0.94983399  0.50271786    -0.79500
O96         O  0.88543361  0.96722013  0.46131558    -0.64200
O97         O  0.03126206  0.99978355  0.46426511    -1.10800
C98         C  0.98748843  0.02393694  0.64682171     1.07400
O99         O  0.87297337  0.04311001  0.49733986    -0.77400
O100        O  0.93797585  0.10377072  0.54547659    -0.65000
Ni101      Ni  0.08367398  0.95491617  0.43724739     1.34900
C102        C  0.98256956  0.11986291  0.52783972     0.86100
O103        O  0.96432880  0.97403850  0.38448584    -0.78000
O104        O  0.05029477  0.95859166  0.36984070    -0.88200
C105        C  0.85465452  0.00374851  0.47585544     0.85700
O106        O  0.05378774  0.88654200  0.45810640    -0.66400
O107        O  0.94044258  0.02882589  0.63142858    -0.85700
C108        C  0.00810606  0.87006963  0.47135868     0.86500
C109        C  0.00396146  0.96679612  0.35332885     1.08100
H110        H  0.95578607  0.95475280  0.55529321     0.39900
O111        O  0.95961886  0.98958158  0.53562248    -1.08400
O112        O  0.02061393  0.08745055  0.52188429    -0.65000
Ni113      Ni  0.03074405  0.01039024  0.53878559     1.26300
O114        O  0.96910436  0.90210391  0.47457344    -0.65300
O115        O  0.02671924  0.01867112  0.61467288    -0.77600
C116        C  0.13659793  0.99052162  0.52383865     0.85900
O117        O  0.10411165  0.02559151  0.53779108    -0.64700
Ni118      Ni  0.90783648  0.03485691  0.56358047     1.27400
Ni119      Ni  0.95980181  0.98010747  0.46065486     1.26100
H120        H  0.03541110  0.03412962  0.44430700     0.40400
N121        N  0.55141991  0.01327882  0.06333405    -0.35200
N122        N  0.43945294  0.99131258  0.06014032    -0.55800
N123        N  0.44928025  0.99380618  0.94514686    -0.35200
N124        N  0.56151456  0.00919780  0.94875121    -0.55800
C125        C  0.53908172  0.00144797  0.11557435     0.28300
C126        C  0.60397023  0.00874453  0.05718648     0.28300
C127        C  0.39996035  0.97513545  0.95356195     0.28300
C128        C  0.46410067  0.98497605  0.89474027     0.28300
C129        C  0.44215529  0.00427871  0.11083505     0.37000
C130        C  0.38827331  0.99319099  0.04845090     0.37000
C131        C  0.61092298  0.02348525  0.95823661     0.37000
C132        C  0.55661051  0.01517894  0.89536883     0.37000
C133        C  0.58431358  0.98966013  0.14303713    -0.20500
C134        C  0.62524470  0.99417385  0.10619097    -0.20500
C135        C  0.38331836  0.95411316  0.90804534    -0.20500
C136        C  0.42372249  0.96047332  0.87085825    -0.20500
C137        C  0.39253024  0.01387547  0.13159168    -0.21600
C138        C  0.35838736  0.00686980  0.09205978    -0.21600
C139        C  0.63772283  0.03804894  0.91055141    -0.21600
C140        C  0.60324901  0.03297575  0.87074018    -0.21600
C141        C  0.48850948  0.00460155  0.13960883    -0.16900
C142        C  0.63342597  0.01933906  0.00894519    -0.16900
C143        C  0.51166425  0.00155026  0.86845970    -0.16900
C144        C  0.36805604  0.98077792  0.99955066    -0.16900
H145        H  0.58752003  0.97919663  0.18533025     0.16000
H146        H  0.66606973  0.98776550  0.11464393     0.16000
H147        H  0.34558334  0.93689796  0.90191341     0.16000
H148        H  0.42316461  0.94893530  0.83054768     0.16000
H149        H  0.38197647  0.02474330  0.17112004     0.14300
H150        H  0.31638353  0.01148957  0.09510792     0.14300
H151        H  0.67809551  0.05041559  0.90499767     0.14300
H152        H  0.61182829  0.04061532  0.82848535     0.14300
H153        H  0.52604813  0.02925575  0.03481960     0.27500
H154        H  0.46896554  0.01738090  0.96971650     0.27500
N155        N  0.54716326  0.01199633  0.43918079    -0.35200
N156        N  0.55703512  0.00212768  0.55430709    -0.55800
N157        N  0.44348300  0.01081774  0.56709733    -0.35200
N158        N  0.43363781  0.01466696  0.45231777    -0.55800
C159        C  0.59849784  0.99941717  0.44262842     0.28300
C160        C  0.53336287  0.00483170  0.38902155     0.28300
C161        C  0.45662349  0.99788439  0.61813658     0.28300
C162        C  0.39141138  0.00268486  0.56440640     0.28300
C163        C  0.60804404  0.00848845  0.53939338     0.37000
C164        C  0.55343606  0.00827604  0.60703432     0.37000
C165        C  0.43758278  0.02296248  0.39868151     0.37000
C166        C  0.38286394  0.02216779  0.46627920     0.37000
C167        C  0.61773843  0.98498143  0.39391797    -0.20500
C168        C  0.57666257  0.98813174  0.36019159    -0.20500
C169        C  0.41225134  0.98201116  0.64833936    -0.20500
C170        C  0.37116883  0.98522493  0.61456154    -0.20500
C171        C  0.63707969  0.01773396  0.58298125    -0.21600
C172        C  0.60249658  0.01793837  0.62572336    -0.21600
C173        C  0.38904663  0.03578183  0.37837213    -0.21600
C174        C  0.35434094  0.03506698  0.42115731    -0.21600
C175        C  0.62925381  0.00347166  0.48755084    -0.16900
C176        C  0.48351938  0.01514804  0.36755075    -0.16900
C177        C  0.36113270  0.01260553  0.51855886    -0.16900
C178        C  0.50689816  0.00304635  0.63904327    -0.16900
H179        H  0.65735076  0.97352608  0.38359882     0.16000
H180        H  0.57866843  0.97942443  0.31891853     0.16000
H181        H  0.40961149  0.96971609  0.69052840     0.16000
H182        H  0.33087972  0.97606093  0.62590936     0.16000
H183        H  0.67884330  0.02372073  0.58391978     0.14300
H184        H  0.61250374  0.02431873  0.66599003     0.14300
H185        H  0.37944414  0.04369277  0.33698418     0.14300
H186        H  0.31271073  0.04220517  0.41912445     0.14300
H187        H  0.52451124  0.02998554  0.46747334     0.27500
H188        H  0.46758288  0.02953800  0.53736705     0.27500
C189        C  0.48542164  0.04421419  0.72420363     0.25000
C190        C  0.51045768  0.00348145  0.69790035    -0.23200
C191        C  0.53744114  0.96287274  0.72794181     0.19900
C192        C  0.53958396  0.96330225  0.78328704     0.24900
C193        C  0.51397456  0.00369368  0.80940261    -0.23100
C194        C  0.48675277  0.04401913  0.77952278     0.19800
F195        F  0.46065155  0.08264343  0.80420232    -0.13100
F196        F  0.45893228  0.08371982  0.69620145    -0.15400
F197        F  0.56519556  0.92345769  0.81170482    -0.15400
F198        F  0.56069425  0.92226768  0.70374623    -0.13100
C199        C  0.45948754  0.96992165  0.28715471     0.25000
C200        C  0.47951690  0.01487056  0.30896450    -0.23200
C201        C  0.50063865  0.05717077  0.27495173     0.19900
C202        C  0.50283553  0.05403619  0.21988844     0.24900
C203        C  0.48410792  0.00848243  0.19808000    -0.23100
C204        C  0.46182007  0.96668980  0.23204715     0.19800
F205        F  0.44356855  0.92226942  0.21183923    -0.13100
F206        F  0.43944000  0.92843309  0.31947683    -0.15400
F207        F  0.52378285  0.09516326  0.18771152    -0.15400
F208        F  0.52027391  0.10086599  0.29533361    -0.13100
C209        C  0.27113448  0.05272139  0.52731373     0.25000
C210        C  0.30336550  0.00741872  0.52507248    -0.23200
C211        C  0.28060965  0.95653611  0.52811971     0.19900
C212        C  0.22634798  0.95095279  0.53119635     0.24900
C213        C  0.19358073  0.99637367  0.53055260    -0.23100
C214        C  0.21658153  0.04729832  0.53025861     0.19800
F215        F  0.18642860  0.09200066  0.53007004    -0.13100
F216        F  0.29254652  0.10224918  0.52489037    -0.15400
F217        F  0.20588608  0.90094250  0.53402576    -0.15400
F218        F  0.31116319  0.91220837  0.52700348    -0.13100
C219        C  0.76891118  0.05020834  0.46215691     0.25000
C220        C  0.79730609  0.00190781  0.46978247    -0.23200
C221        C  0.76967583  0.95360428  0.47987661     0.19900
C222        C  0.71492935  0.95400086  0.48518520     0.24900
C223        C  0.68709246  0.00248800  0.47960482    -0.23100
C224        C  0.71434981  0.05038995  0.46677639     0.19800
F225        F  0.68808161  0.09757078  0.46038451    -0.13100
F226        F  0.79414625  0.09758928  0.45150582    -0.15400
F227        F  0.68901933  0.90728129  0.49729006    -0.15400
F228        F  0.79570220  0.90649036  0.48807728    -0.13100
C229        C  0.22794895  0.93368709  0.02576822     0.25000
C230        C  0.20051636  0.97179114  0.99332552    -0.23200
C231        C  0.22834001  0.01093954  0.96094169     0.19900
C232        C  0.28286586  0.01293490  0.96209372     0.24900
C233        C  0.31039471  0.97560424  0.99546760    -0.23100
C234        C  0.28259779  0.93513748  0.02635917     0.19800
F235        F  0.30834331  0.89822686  0.05837455    -0.13100
F236        F  0.20159768  0.89626679  0.05819030    -0.15400
F237        F  0.30874550  0.05289307  0.93257874    -0.15400
F238        F  0.20244033  0.04955476  0.93111400    -0.13100
C239        C  0.77458606  0.97754215  0.99284852     0.25000
C240        C  0.80166645  0.02205608  0.00806473    -0.23200
C241        C  0.77318696  0.06504185  0.02688520     0.19900
C242        C  0.71821323  0.06424607  0.02807063     0.24900
C243        C  0.69148124  0.02026221  0.01096226    -0.23100
C244        C  0.72017328  0.97661103  0.99444384     0.19800
F245        F  0.69524208  0.93321166  0.97908279    -0.13100
F246        F  0.80108119  0.93463969  0.97626356    -0.15400
F247        F  0.69109237  0.10686023  0.04431373    -0.15400
F248        F  0.79839785  0.10858237  0.04155249    -0.13100
C249        C  0.03961154  0.98744191  0.78584138     0.25000
C250        C  0.99851097  0.00559295  0.81809390    -0.23200
C251        C  0.95855527  0.03653625  0.79381647     0.19900
C252        C  0.95713488  0.04538287  0.73842404     0.24900
C253        C  0.99545991  0.02298730  0.70543958    -0.23100
C254        C  0.03812520  0.99597799  0.72993250     0.19800
F255        F  0.07668066  0.97481228  0.69998354    -0.13100
F256        F  0.07911708  0.95803995  0.80818835    -0.15400
F257        F  0.91711661  0.07485184  0.71711767    -0.15400
F258        F  0.91963436  0.05695193  0.82397044    -0.13100
C259        C  0.03704941  0.95901398  0.20649434     0.25000
C260        C  0.00055567  0.99447689  0.18230720    -0.23200
C261        C  0.96027162  0.01489209  0.21406239     0.19900
C262        C  0.95894841  0.00317039  0.26967512     0.24900
C263        C  0.99780645  0.97050272  0.29440438    -0.23100
C264        C  0.03550229  0.94678410  0.26165292     0.19800
F265        F  0.07229982  0.91299528  0.28311498    -0.13100
F266        F  0.07540743  0.93728790  0.17662849    -0.15400
F267        F  0.92198030  0.02703585  0.29941684    -0.15400
F268        F  0.92467638  0.04955595  0.19178745    -0.13100
C269        C  0.96079997  0.78256715  0.46114579     0.25000
C270        C  0.00184889  0.81041189  0.48228047    -0.23200
C271        C  0.04149296  0.77987156  0.50837421     0.19900
C272        C  0.04083699  0.72357145  0.51217390     0.24900
C273        C  0.00066855  0.69574827  0.48982907    -0.23100
C274        C  0.96022618  0.72600649  0.46492896     0.19800
F275        F  0.92066506  0.70062636  0.44311098    -0.13100
F276        F  0.92283457  0.80999635  0.43403593    -0.15400
F277        F  0.08052484  0.69610329  0.53646565    -0.15400
F278        F  0.08171654  0.80473082  0.52969161    -0.13100
C279        C  0.04178953  0.26104216  0.51335479     0.25000
C280        C  0.99795890  0.29344516  0.50073128    -0.23200
C281        C  0.95037521  0.26800215  0.49297567     0.19900
C282        C  0.94613221  0.21188178  0.49968238     0.22100
C283        C  0.98939620  0.17926176  0.51473099    -0.23100
C284        C  0.03759029  0.20475389  0.52041614     0.19800
F285        F  0.08018787  0.17544586  0.53531156    -0.13100
F286        F  0.08851401  0.28416723  0.52039159    -0.15400
F287        F  0.89926784  0.18945148  0.49154329    -0.15400
F288        F  0.90746656  0.29771963  0.47992838    -0.13100
C289        C  0.96121315  0.47311276  0.77664636     0.25000
C290        C  0.00793758  0.48544006  0.80045451    -0.23200
C291        C  0.05326921  0.49599633  0.76853562     0.19900
C292        C  0.05181821  0.49479697  0.71334490     0.24900
C293        C  0.00498522  0.48314883  0.68943808    -0.23100
C294        C  0.95971900  0.47208801  0.72137450     0.19800
F295        F  0.91393673  0.46177092  0.69875423    -0.13100
F296        F  0.91684983  0.46365243  0.80688543    -0.15400
F297        F  0.09582338  0.50588710  0.68298664    -0.15400
F298        F  0.09870303  0.50800075  0.79095272    -0.13100
C299        C  0.05893100  0.49849364  0.21631139     0.25000
C300        C  0.01466734  0.51501986  0.18782539    -0.23200
C301        C  0.96884793  0.52904471  0.21553906     0.19900
C302        C  0.96697950  0.52546440  0.27119061     0.24900
C303        C  0.01090918  0.50783071  0.29977908    -0.23100
C304        C  0.05710897  0.49499230  0.27199617     0.19800
F305        F  0.10011712  0.47850330  0.29893693    -0.13100
F306        F  0.10336083  0.48442334  0.19007515    -0.15400
F307        F  0.92207544  0.53822925  0.29736876    -0.15400
F308        F  0.92544520  0.54421050  0.18859888    -0.13100
C309        C  0.05865993  0.78196063  0.94557686     0.25000
C310        C  0.00934399  0.80216334  0.96044169    -0.23200
C311        C  0.96911835  0.76622904  0.97834352     0.19900
C312        C  0.97796099  0.71152805  0.98121908     0.24900
C313        C  0.02700299  0.69161700  0.96674685    -0.23100
C314        C  0.06734853  0.72671678  0.94859893     0.19800
F315        F  0.11498373  0.70742729  0.93454211    -0.13100
F316        F  0.09816883  0.81548263  0.92801207    -0.15400
F317        F  0.93877714  0.67761730  0.99901733    -0.15400
F318        F  0.92164907  0.78384738  0.99520768    -0.13100
C319        C  0.02897428  0.23181947  0.06685595     0.25000
C320        C  0.99229116  0.19934330  0.04466849    -0.23200
C321        C  0.94927055  0.22351854  0.01838323     0.19900
C322        C  0.94480200  0.27905746  0.01201850     0.24900
C323        C  0.98354719  0.31089186  0.03093003    -0.23100
C324        C  0.02471250  0.28713701  0.05969444     0.19800
F325        F  0.06236776  0.31770929  0.07844097    -0.13100
F326        F  0.07033755  0.21029693  0.09355032    -0.15400
F327        F  0.90438797  0.30189353  0.98479023    -0.15400
F328        F  0.91353768  0.19386052  0.99550288    -0.13100
loop_ 
_geom_bond_atom_site_label_1 
_geom_bond_atom_site_label_2 
_geom_bond_distance 
_geom_bond_site_symmetry_2 
_ccdc_geom_bond_type 
N1            C6   1.347   1_455  A
N1            C5   1.352   1_455  A
N1           H33   1.038       .  S
N2            C9   1.351       .  A
N2           C10   1.345       .  A
N3            C8   1.354       .  A
N3            C7   1.351       .  A
N3           H34   1.039       .  S
N4           C11   1.348       .  A
N4           C12   1.351   1_655  A
C5           C13   1.388       .  A
C5           C21   1.411   1_655  A
C6           C22   1.406       .  A
C6           C14   1.386       .  A
C7           C15   1.389       .  A
C7           C24   1.414       .  A
C8           C23   1.410       .  A
C8           C16   1.385       .  A
C9           C21   1.409       .  A
C9           C17   1.384       .  A
C10          C24   1.410   1_554  A
C10          C18   1.388       .  A
C11          C19   1.389   1_655  A
C11          C22   1.411   1_556  A
C12          C20   1.384       .  A
C12          C23   1.406       .  A
C13          C14   1.372       .  A
C13          H25   1.082       .  S
C14          H26   1.083       .  S
C15          C16   1.373       .  A
C15          H27   1.082       .  S
C16          H28   1.083   1_455  S
C17          C18   1.374       .  A
C17          H29   1.082       .  S
C18          H30   1.082       .  S
C19          C20   1.371       .  A
C19          H31   1.082       .  S
C20          H32   1.082       .  S
C21         C300   1.484       .  S
C22         C323   1.471       .  S
C23         C290   1.483       .  S
C24         C313   1.469       .  S
N35          C40   1.362   1_455  A
N35          C39   1.353   1_455  A
N35          H67   1.035       .  S
N36          C43   1.353       .  A
N36          C44   1.358       .  A
N37          C42   1.353       .  A
N37          C41   1.362   1_455  A
N37          H68   1.031       .  S
N38          C45   1.359       .  A
N38          C46   1.353       .  A
C39          C47   1.389       .  A
C39          C55   1.424   1_655  A
C40          C56   1.426   1_655  A
C40          C48   1.385       .  A
C41          C49   1.387       .  A
C41          C58   1.430   1_655  A
C42          C57   1.428       .  A
C42          C50   1.389   1_455  A
C43          C55   1.423       .  A
C43          C51   1.388       .  A
C44          C58   1.426       .  A
C44          C52   1.386       .  A
C45          C53   1.384       .  A
C45          C56   1.422       .  A
C46          C54   1.389       .  A
C46          C57   1.424       .  A
C47          C48   1.376       .  A
C47          H59   1.082       .  S
C48          H60   1.082       .  S
C49          C50   1.379       .  A
C49          H61   1.082       .  S
C50          H62   1.082       .  S
C51          C52   1.374       .  A
C51          H63   1.082       .  S
C52          H64   1.082       .  S
C53          C54   1.373       .  A
C53          H65   1.082       .  S
C54          H66   1.082       .  S
C55         C293   1.485       .  S
C56         C273   1.517       .  S
C57         C303   1.488       .  S
C58         C280   1.514   1_455  S
O69         Ni75   1.908   1_545  S
O69          C90   1.265       .  A
O70         Ni93   1.922       .  S
O70          C79   1.270   1_556  A
O71         Ni75   1.893   1_554  S
O71         Ni93   1.907   1_654  S
O71         Ni87   1.909   1_565  S
O71          H94   0.969       .  S
C72         C320   1.472   1_455  S
C72          O89   1.275   1_455  A
C72          O81   1.278       .  A
O73         Ni92   1.920   1_565  S
O73          C79   1.267       .  A
O74         Ni92   1.903       .  S
O74          C76   1.267       .  A
Ni75         O78   1.906       .  S
Ni75         O80   1.898       .  S
C76         C260   1.483   1_545  S
C76          O86   1.272   1_455  A
O77         Ni93   1.916       .  S
O77          C83   1.278   1_455  A
O78          C83   1.277       .  A
C79         C230   1.470   1_554  S
O80          C82   1.266       .  A
O81         Ni92   1.913       .  S
C82         C250   1.486   1_565  S
C82          O88   1.274   1_655  A
C83         C310   1.471   1_655  S
H84          O85   0.964       .  S
O85         Ni93   1.906   1_545  S
O85         Ni87   1.912   1_456  S
O85         Ni92   1.899   1_556  S
O86         Ni87   1.940       .  S
Ni87         O91   1.929       .  S
Ni87         O89   1.902       .  S
O88         Ni93   1.947       .  S
C90         C240   1.477   1_556  S
C90          O91   1.269   1_556  A
O95        Ni101   1.923       .  S
O95         C116   1.271       .  A
O96        Ni119   1.933       .  S
O96         C105   1.275   1_565  A
O97        Ni101   1.894       .  S
O97        Ni119   1.906   1_455  S
O97        Ni113   1.922   1_565  S
O97         H120   0.964   1_565  S
C98         C253   1.498       .  S
C98         O115   1.284   1_655  A
C98         O107   1.280       .  A
O99        Ni118   1.917       .  S
O99         C105   1.267       .  A
O100       Ni118   1.911       .  S
O100        C102   1.267       .  A
Ni101       O104   1.924       .  S
Ni101       O106   1.907       .  S
C102        C283   1.508       .  S
C102        O112   1.279   1_655  A
O103       Ni119   1.941       .  S
O103        C109   1.285   1_655  A
O104        C109   1.280       .  A
C105        C220   1.483       .  S
O106        C108   1.268       .  A
O107       Ni118   1.924       .  S
C108        C270   1.507       .  S
C108        O114   1.283   1_455  A
C109        C263   1.496   1_455  S
H110        O111   0.971       .  S
O111       Ni119   1.927       .  S
O111       Ni113   1.904   1_665  S
O111       Ni118   1.899   1_565  S
O112       Ni113   1.961       .  S
Ni113       O117   1.919       .  S
Ni113       O115   1.944       .  S
O114       Ni119   1.973       .  S
C116        C213   1.484       .  S
C116        O117   1.271   1_565  A
N121        C126   1.355       .  A
N121        C125   1.353       .  A
N121        H153   1.039       .  S
N122        C129   1.352   1_565  A
N122        C130   1.353       .  A
N123        C128   1.352       .  A
N123        C127   1.353       .  A
N123        H154   1.038   1_565  S
N124        C131   1.352       .  A
N124        C132   1.353       .  A
C125        C133   1.387   1_545  A
C125        C141   1.416       .  A
C126        C142   1.416       .  A
C126        C134   1.387   1_545  A
C127        C135   1.386       .  A
C127        C144   1.414       .  A
C128        C143   1.414   1_565  A
C128        C136   1.388       .  A
C129        C141   1.413       .  A
C129        C137   1.386       .  A
C130        C144   1.415   1_554  A
C130        C138   1.386   1_565  A
C131        C139   1.387       .  A
C131        C142   1.417   1_556  A
C132        C140   1.386       .  A
C132        C143   1.415       .  A
C133        C134   1.376       .  A
C133        H145   1.083       .  S
C134        H146   1.082       .  S
C135        C136   1.374       .  A
C135        H147   1.082       .  S
C136        H148   1.082       .  S
C137        C138   1.372       .  A
C137        H149   1.082       .  S
C138        H150   1.082       .  S
C139        C140   1.374       .  A
C139        H151   1.082       .  S
C140        H152   1.082       .  S
C141        C203   1.488       .  S
C142        C243   1.490       .  S
C143        C193   1.486       .  S
C144        C233   1.491       .  S
N155        C160   1.353       .  A
N155        C159   1.354   1_545  A
N155        H187   1.037       .  S
N156        C163   1.354       .  A
N156        C164   1.353       .  A
N157        C162   1.355       .  A
N157        C161   1.354   1_545  A
N157        H188   1.037       .  S
N158        C165   1.352       .  A
N158        C166   1.352       .  A
C159        C167   1.386       .  A
C159        C175   1.413   1_565  A
C160        C176   1.417       .  A
C160        C168   1.389   1_545  A
C161        C169   1.388       .  A
C161        C178   1.419   1_565  A
C162        C177   1.418       .  A
C162        C170   1.387   1_545  A
C163        C175   1.415       .  A
C163        C171   1.385       .  A
C164        C178   1.417       .  A
C164        C172   1.387       .  A
C165        C173   1.386       .  A
C165        C176   1.415       .  A
C166        C174   1.387       .  A
C166        C177   1.416       .  A
C167        C168   1.373       .  A
C167        H179   1.082       .  S
C168        H180   1.082       .  S
C169        C170   1.374       .  A
C169        H181   1.082       .  S
C170        H182   1.082       .  S
C171        C172   1.373       .  A
C171        H183   1.082       .  S
C172        H184   1.082       .  S
C173        C174   1.374       .  A
C173        H185   1.082       .  S
C174        H186   1.082       .  S
C175        C223   1.488       .  S
C176        C200   1.486       .  S
C177        C210   1.488       .  S
C178        C190   1.492       .  S
C189        C190   1.407       .  A
C189        C194   1.397       .  A
C189        F196   1.358       .  S
C190        C191   1.408   1_545  A
C191        C192   1.401       .  A
C191        F198   1.357       .  S
C192        C193   1.404   1_565  A
C192        F197   1.357       .  S
C193        C194   1.404       .  A
C194        F195   1.358       .  S
C199        C200   1.405   1_565  A
C199        C204   1.400       .  A
C199        F206   1.358       .  S
C200        C201   1.405       .  A
C201        C202   1.398       .  A
C201        F208   1.358       .  S
C202        C203   1.405       .  A
C202        F207   1.358       .  S
C203        C204   1.406   1_545  A
C204        F205   1.358       .  S
C209        C210   1.405       .  A
C209        C214   1.403       .  A
C209        F216   1.357       .  S
C210        C211   1.402   1_545  A
C211        C212   1.396       .  A
C211        F218   1.358       .  S
C212        C213   1.411       .  A
C212        F217   1.358       .  S
C213        C214   1.410   1_565  A
C214        F215   1.358       .  S
C219        C220   1.412       .  A
C219        C224   1.398       .  A
C219        F226   1.359       .  S
C220        C221   1.407   1_545  A
C221        C222   1.404       .  A
C221        F228   1.357       .  S
C222        C223   1.405   1_565  A
C222        F227   1.357       .  S
C223        C224   1.402       .  A
C224        F225   1.358       .  S
C229        C230   1.404   1_554  A
C229        C234   1.401       .  A
C229        F236   1.358       .  S
C230        C231   1.404   1_565  A
C231        C232   1.399       .  A
C231        F238   1.358       .  S
C232        C233   1.406   1_545  A
C232        F237   1.358       .  S
C233        C234   1.407   1_556  A
C234        F235   1.358       .  S
C239        C240   1.407   1_566  A
C239        C244   1.393       .  A
C239        F246   1.358       .  S
C240        C241   1.406       .  A
C241        C242   1.407       .  A
C241        F248   1.358       .  S
C242        C243   1.409       .  A
C242        F247   1.357       .  S
C243        C244   1.401   1_544  A
C244        F245   1.358       .  S
C249        C250   1.407   1_465  A
C249        C254   1.410       .  A
C249        F256   1.357       .  S
C250        C251   1.405       .  A
C251        C252   1.398       .  A
C251        F258   1.359       .  S
C252        C253   1.411       .  A
C252        F257   1.358       .  S
C253        C254   1.414   1_645  A
C254        F255   1.357       .  S
C259        C260   1.404       .  A
C259        C264   1.398       .  A
C259        F266   1.359       .  S
C260        C261   1.407   1_465  A
C261        C262   1.408       .  A
C261        F268   1.358       .  S
C262        C263   1.412   1_545  A
C262        F267   1.357       .  S
C263        C264   1.412   1_655  A
C264        F265   1.358       .  S
C269        C270   1.411   1_655  A
C269        C274   1.414       .  A
C269        F276   1.357       .  S
C270        C271   1.414       .  A
C271        C272   1.408       .  A
C271        F278   1.358       .  S
C272        C273   1.407       .  A
C272        F277   1.358       .  S
C273        C274   1.412   1_455  A
C274        F275   1.357       .  S
C279        C280   1.411   1_455  A
C279        C284   1.413       .  A
C279        F286   1.357       .  S
C280        C281   1.407       .  A
C281        C282   1.408       .  A
C281        F288   1.358       .  S
C282        C283   1.416       .  A
C282        F287   1.358       .  S
C283        C284   1.411   1_655  A
C284        F285   1.357       .  S
C289        C290   1.405   1_655  A
C289        C294   1.399       .  A
C289        F296   1.358       .  S
C290        C291   1.404       .  A
C291        C292   1.398       .  A
C291        F298   1.358       .  S
C292        C293   1.404       .  A
C292        F297   1.358       .  S
C293        C294   1.405   1_455  A
C294        F295   1.357       .  S
C299        C300   1.404       .  A
C299        C304   1.400       .  A
C299        F306   1.358       .  S
C300        C301   1.405   1_455  A
C301        C302   1.399       .  A
C301        F308   1.358       .  S
C302        C303   1.405   1_655  A
C302        F307   1.358       .  S
C303        C304   1.405       .  A
C304        F305   1.357       .  S
C309        C310   1.409       .  A
C309        C314   1.399       .  A
C309        F316   1.358       .  S
C310        C311   1.410   1_455  A
C311        C312   1.386       .  A
C311        F318   1.359       .  S
C312        C313   1.398   1_655  A
C312        F317   1.359       .  S
C313        C314   1.401       .  A
C314        F315   1.357       .  S
C319        C320   1.409   1_455  A
C319        C324   1.388       .  A
C319        F326   1.358       .  S
C320        C321   1.412       .  A
C321        C322   1.393       .  A
C321        F328   1.358   1_554  S
C322        C323   1.400       .  A
C322        F327   1.358   1_554  S
C323        C324   1.401   1_655  A
C324        F325   1.359       .  S
