geometry optimzed in LAMMPS
_audit_creation_date              2020-11-30 
_audit_creation_method            'lammps2cif' 
_symmetry_space_group_name_H-M    'P1' 
_symmetry_Int_Tables_number       1 
_symmetry_cell_setting            triclinic 
loop_ 
_symmetry_equiv_pos_as_xyz 
  x,y,z 
_cell_length_a                    28.40694194 
_cell_length_b                    28.406940963474238 
_cell_length_c                    28.936608940138587 
_cell_angle_alpha                 89.99719199219334 
_cell_angle_beta                  90.00385039494972 
_cell_angle_gamma                 89.97182964649545 
loop_ 
_atom_site_label 
_atom_site_type_symbol 
_atom_site_fract_x 
_atom_site_fract_y 
_atom_site_fract_z 
_atom_site_charge 
O1          O  0.51803305  0.05805678  0.45109518    -0.73100
O2          O  0.55099275  0.96359405  0.05057832    -0.74100
O3          O  0.55098343  0.96358972  0.44958512    -0.62700
O4          O  0.51803812  0.05806163  0.04906147    -0.71100
O5          O  0.44505284  0.03030560  0.05017543    -0.70700
O6          O  0.47799952  0.93584569  0.45103934    -0.61900
O7          O  0.47800902  0.93584835  0.04913460    -0.74400
O8          O  0.44504670  0.03030293  0.44999009    -0.73200
Cu9        Cu  0.53721145  0.01146060  0.99977801     1.04600
Cu10       Cu  0.45903279  0.98222460  0.50055462     1.04300
C11         C  0.47653609  0.05819977  0.43406253     0.93100
C12         C  0.51940449  0.93575439  0.06640386     0.92200
C13         C  0.51939027  0.93575130  0.43376506     0.84400
C14         C  0.47654462  0.05820430  0.06609708     0.90600
N15         N  0.46955698  0.14855204  0.15605261    -0.27500
N16         N  0.45204351  0.11174443  0.17825897    -0.35300
C17         C  0.44889943  0.07519374  0.14861771     0.00900
C18         C  0.46585829  0.08923437  0.10586985     0.06900
C19         C  0.47911085  0.13581253  0.11207020    -0.06200
H20         H  0.43856353  0.03991420  0.15838594     0.07600
H21         H  0.49576706  0.15838103  0.08679173     0.08800
Cu22       Cu  0.44235056  0.10992685  0.25007462     0.44200
Cu23       Cu  0.48168688  0.21415755  0.18756123     0.42000
Cu24       Cu  0.48167562  0.21415053  0.31259026     0.43900
N25         N  0.45203393  0.11173870  0.32189268    -0.34900
N26         N  0.46954212  0.14854676  0.34410053    -0.29100
C27         C  0.47909265  0.13580810  0.38808633    -0.05200
C28         C  0.46584333  0.08922883  0.39428693     0.07000
C29         C  0.44889043  0.07518699  0.35153607     0.00800
H30         H  0.49574506  0.15837492  0.41336374     0.08500
H31         H  0.43856052  0.03990611  0.34176803     0.07500
N32         N  0.48930024  0.27575258  0.27295436    -0.36300
N33         N  0.48930357  0.27575640  0.22720264    -0.28500
C34         C  0.49356978  0.32057930  0.21212616    -0.03700
C35         C  0.49643840  0.35040962  0.25008339     0.04900
C36         C  0.49356480  0.32057181  0.28803543     0.03000
H37         H  0.49383643  0.33081314  0.17616465     0.08100
H38         H  0.49382578  0.33079973  0.32400326     0.06900
N39         N  0.52522774  0.84561750  0.15652336    -0.27500
N40         N  0.54442241  0.88181963  0.17834655    -0.35300
C41         C  0.54821252  0.91819843  0.14854960     0.00900
C42         C  0.52986373  0.90465815  0.10617597     0.06900
C43         C  0.51518798  0.85859405  0.11274115    -0.06200
H44         H  0.55996323  0.95311093  0.15801394     0.07600
H45         H  0.49730975  0.83652384  0.08782741     0.08800
Cu46       Cu  0.55518797  0.88335309  0.25008913     0.44200
Cu47       Cu  0.51215842  0.78026447  0.18789441     0.42000
Cu48       Cu  0.51211726  0.78027021  0.31227696     0.43900
N49         N  0.54440125  0.88181907  0.32182741    -0.34900
N50         N  0.52518996  0.84562181  0.34364539    -0.29100
C51         C  0.51514621  0.85859775  0.38742502    -0.05200
C52         C  0.52983811  0.90465683  0.39399300     0.07000
C53         C  0.54819886  0.91819270  0.35162521     0.00800
H54         H  0.49726177  0.83653444  0.41233060     0.08500
H55         H  0.55996882  0.95310788  0.34216262     0.07500
N56         N  0.50644854  0.71840700  0.27295512    -0.36300
N57         N  0.50646411  0.71840554  0.22722415    -0.28500
C58         C  0.50455325  0.67344779  0.21212499    -0.03700
C59         C  0.50335036  0.64354103  0.25009421     0.04900
C60         C  0.50452780  0.67345040  0.28805820     0.03000
H61         H  0.50489902  0.66321985  0.17617612     0.08100
H62         H  0.50484928  0.66322220  0.32401758     0.06900
O63         O  0.94155673  0.48220530  0.04952173    -0.73100
O64         O  0.03762527  0.45513170  0.44929106    -0.74100
O65         O  0.03763860  0.45512029  0.05090365    -0.62700
O66         O  0.94154576  0.48222677  0.45067474    -0.71100
O67         O  0.96498345  0.55674382  0.44916163    -0.70700
O68         O  0.06121841  0.52960325  0.05001690    -0.61900
O69         O  0.06120769  0.52961356  0.45018160    -0.74400
O70         O  0.96499211  0.55672244  0.05105200    -0.73200
Cu71       Cu  0.98914642  0.46619987  0.00038722     1.04600
Cu72       Cu  0.01382660  0.54601056  0.00064281     1.04300
C73         C  0.93893242  0.52354948  0.06663660     0.93100
C74         C  0.06362353  0.48813106  0.43331110     0.92200
C75         C  0.06363707  0.48811881  0.06688581     0.84400
C76         C  0.93892102  0.52357715  0.43356960     0.90600
N77         N  0.15441151  0.48343945  0.34398724    -0.27500
N78         N  0.11812476  0.46515899  0.32161584    -0.35300
C79         C  0.08144211  0.46152394  0.35093396     0.00900
C80         C  0.09492421  0.47896569  0.39360180     0.06900
C81         C  0.14125948  0.49305256  0.38780416    -0.06200
H82         H  0.04649257  0.45023393  0.34104075     0.07600
H83         H  0.16345675  0.50987863  0.41326885     0.08800
Cu84       Cu  0.11714361  0.45481369  0.25010472     0.44200
Cu85       Cu  0.21987117  0.49495921  0.31289370     0.42000
Cu86       Cu  0.21985873  0.49500887  0.18734437     0.43900
N87         N  0.11813260  0.46515723  0.17859252    -0.34900
N88         N  0.15441232  0.48346098  0.15623243    -0.29100
C89         C  0.14126384  0.49306877  0.11241130    -0.05200
C90         C  0.09493931  0.47895321  0.10659813     0.07000
C91         C  0.08145539  0.46150034  0.14926309     0.00800
H92         H  0.16345663  0.50991427  0.08695326     0.08500
H93         H  0.04652558  0.45019726  0.15914138     0.07500
N94         N  0.28117734  0.49823769  0.22724433    -0.36300
N95         N  0.28118356  0.49821617  0.27298946    -0.28500
C96         C  0.32610345  0.49860941  0.28809557    -0.03700
C97         C  0.35584969  0.49886486  0.25011014     0.04900
C98         C  0.32609001  0.49864475  0.21213755     0.03000
H99         H  0.33634275  0.49803558  0.32403005     0.08100
H100        H  0.33632769  0.49810375  0.17616538     0.06900
N101        N  0.84801991  0.52529579  0.34431436    -0.27500
N102        N  0.88395806  0.54394927  0.32170311    -0.35300
C103        C  0.92048201  0.54902485  0.35101462     0.00900
C104        C  0.90727833  0.53223079  0.39400564     0.06900
C105        C  0.86127981  0.51695405  0.38835521    -0.06200
H106        H  0.95524220  0.56064584  0.34090968     0.07600
H107        H  0.83951007  0.49988436  0.41402631     0.08800
Cu108      Cu  0.88491895  0.55305507  0.25009700     0.44200
Cu109      Cu  0.78312753  0.51075387  0.31302211     0.42000
Cu110      Cu  0.78314276  0.51068028  0.18717265     0.43900
N111        N  0.88396377  0.54391363  0.17849574    -0.34900
N112        N  0.84803658  0.52522997  0.15588867    -0.29100
C113        C  0.86130139  0.51688280  0.11185304    -0.05200
C114        C  0.90728950  0.53218728  0.10619993     0.07000
C115        C  0.92048595  0.54900396  0.14918634     0.00800
H116        H  0.83953829  0.49979395  0.08618306     0.08500
H117        H  0.95522639  0.56065117  0.15928587     0.07500
N118        N  0.72213367  0.50326114  0.22721258    -0.36300
N119        N  0.72213015  0.50328956  0.27296973    -0.28500
C120        C  0.67730116  0.50002654  0.28805582    -0.03700
C121        C  0.64756908  0.49784179  0.25008564     0.04900
C122        C  0.67730576  0.49998058  0.21211956     0.03000
H123        H  0.66702748  0.50029773  0.32400282     0.08100
H124        H  0.66703571  0.50020673  0.17616800     0.06900
O125        O  0.43037606  0.49796265  0.21177366    -0.74300
O126        O  0.57290775  0.49630875  0.21176584    -0.74100
O127        O  0.50033603  0.42535414  0.21178740    -0.62700
O128        O  0.50244480  0.56859225  0.21178936    -0.71100
O129        O  0.50245078  0.56858766  0.28840175    -0.70700
O130        O  0.50035077  0.42534591  0.28838926    -0.61900
O131        O  0.57291646  0.49630777  0.28840580    -0.74400
O132        O  0.43038884  0.49795118  0.28843087    -0.73200
Cu133      Cu  0.50157688  0.49700758  0.20914589     1.04600
Cu134      Cu  0.50158876  0.49700061  0.29104005     1.04300
C135        C  0.40795434  0.49825682  0.25010489     0.93100
C136        C  0.59538342  0.49655266  0.25008494     0.92200
C137        C  0.49939413  0.40278219  0.25008690     0.84400
C138        C  0.50267086  0.59115030  0.25009557     0.90600
O139        O  0.51818665  0.05785332  0.95027750    -0.73100
O140        O  0.55124525  0.96335548  0.55092002    -0.74100
O141        O  0.55122802  0.96335751  0.94924378    -0.62700
O142        O  0.51820504  0.05785293  0.54987954    -0.71100
O143        O  0.44521451  0.03012429  0.55128915    -0.70700
O144        O  0.47823574  0.93562342  0.95033773    -0.61900
O145        O  0.47825183  0.93562335  0.54983661    -0.74400
O146        O  0.44519626  0.03012350  0.94887627    -0.73200
Cu147      Cu  0.53721682  0.01145764  0.50038189     1.04600
Cu148      Cu  0.45902804  0.98222575  0.99961573     1.04300
C149        C  0.47674062  0.05804390  0.93311767     0.93100
C150        C  0.51977774  0.93541558  0.56680823     0.92200
C151        C  0.51975756  0.93541662  0.93336175     0.84400
C152        C  0.47676249  0.05804493  0.56704215     0.90600
N153        N  0.47093400  0.14875227  0.65655230    -0.27500
N154        N  0.45116793  0.11287946  0.67840474    -0.35300
C155        C  0.44726787  0.07636609  0.64878892     0.00900
C156        C  0.46614956  0.08946635  0.60651491     0.06900
C157        C  0.48119550  0.13542774  0.61293149    -0.06200
H158        H  0.43517263  0.04160084  0.65837907     0.07600
H159        H  0.49961545  0.15713656  0.58807795     0.08800
Cu160      Cu  0.44013652  0.11169994  0.75007323     0.44200
Cu161      Cu  0.48519473  0.21386824  0.68784975     0.42000
Cu162      Cu  0.48517907  0.21386263  0.81230070     0.43900
N163        N  0.45114999  0.11287646  0.82174576    -0.34900
N164        N  0.47090967  0.14875029  0.84360103    -0.29100
C165        C  0.48116314  0.13542605  0.88722460    -0.05200
C166        C  0.46612065  0.08946525  0.89364282     0.07000
C167        C  0.44724745  0.07636127  0.85136357     0.00800
H168        H  0.49958565  0.15714185  0.91208746     0.08500
H169        H  0.43516168  0.04160137  0.84177460     0.07500
N170        N  0.49350625  0.27537297  0.77294331    -0.36300
N171        N  0.49351077  0.27537637  0.72721185    -0.28500
C172        C  0.49737914  0.32020095  0.71211199    -0.03700
C173        C  0.49990416  0.35000898  0.75008176     0.04900
C174        C  0.49737218  0.32019406  0.78804649     0.03000
H175        H  0.49724370  0.33045683  0.67616691     0.08100
H176        H  0.49722941  0.33044539  0.82399964     0.06900
N177        N  0.52663374  0.84469552  0.65634295    -0.27500
N178        N  0.54539790  0.88099142  0.67836350    -0.35300
C179        C  0.54875392  0.91758509  0.64879211     0.00900
C180        C  0.53057283  0.90410928  0.60634372     0.06900
C181        C  0.51645119  0.85781274  0.61261984    -0.06200
H182        H  0.56005755  0.95261346  0.65849214     0.07600
H183        H  0.49881150  0.83571577  0.58760193     0.08800
Cu184      Cu  0.55602797  0.88232024  0.75009142     0.44200
Cu185      Cu  0.51396978  0.77924475  0.68766907     0.42000
Cu186      Cu  0.51393800  0.77924754  0.81250984     0.43900
N187        N  0.54537724  0.88099049  0.82181521    -0.34900
N188        N  0.52660014  0.84469843  0.84383241    -0.29100
C189        C  0.51641397  0.85781930  0.88754872    -0.05200
C190        C  0.53054415  0.90410956  0.89382891     0.07000
C191        C  0.54873827  0.91758674  0.85138403     0.00800
H192        H  0.49875727  0.83571215  0.91257768     0.08500
H193        H  0.56004758  0.95258894  0.84169229     0.07500
N194        N  0.50762138  0.71760779  0.77296256    -0.36300
N195        N  0.50763290  0.71760740  0.72722109    -0.28500
C196        C  0.50502286  0.67269377  0.71212677    -0.03700
C197        C  0.50332148  0.64283916  0.75009434     0.04900
C198        C  0.50500463  0.67269339  0.78806226     0.03000
H199        H  0.50527708  0.66244969  0.67617904     0.08100
H200        H  0.50524013  0.66245264  0.82400034     0.06900
O201        O  0.94184301  0.48253488  0.54915256    -0.73100
O202        O  0.03783193  0.45545932  0.95005495    -0.74100
O203        O  0.03783415  0.45545130  0.55013951    -0.62700
O204        O  0.94184041  0.48254270  0.95104410    -0.71100
O205        O  0.96527619  0.55706808  0.95005290    -0.70700
O206        O  0.06141088  0.52993467  0.54886737    -0.61900
O207        O  0.06140378  0.52994393  0.95133010    -0.74400
O208        O  0.96528469  0.55705799  0.55016053    -0.73200
Cu209      Cu  0.98914133  0.46620404  0.49980779     1.04600
Cu210      Cu  0.01382579  0.54601351  0.49956322     1.04300
C211        C  0.93937881  0.52395650  0.56612772     0.93100
C212        C  0.06376982  0.48856798  0.93420633     0.92200
C213        C  0.06377634  0.48855641  0.56598905     0.84400
C214        C  0.93937111  0.52396996  0.93407843     0.90600
N215        N  0.15396129  0.48327640  0.84422384    -0.27500
N216        N  0.11686797  0.46693572  0.82167067    -0.35300
C217        C  0.08024024  0.46391985  0.85110377     0.00900
C218        C  0.09460147  0.47969448  0.89409732     0.06900
C219        C  0.14140110  0.49224333  0.88836505    -0.06200
H220        H  0.04489051  0.45403075  0.84119573     0.07600
H221        H  0.16437063  0.50744671  0.91413965     0.08800
Cu222      Cu  0.11516047  0.45758913  0.75010185     0.44200
Cu223      Cu  0.21979663  0.49279225  0.81293520     0.42000
Cu224      Cu  0.21978484  0.49284395  0.68729153     0.43900
N225        N  0.11687395  0.46693230  0.67853220    -0.34900
N226        N  0.15396011  0.48329778  0.65598829    -0.29100
C227        C  0.14139856  0.49225753  0.61184695    -0.05200
C228        C  0.09461157  0.47967971  0.60609845     0.07000
C229        C  0.08025126  0.46389372  0.64908941     0.00800
H230        H  0.16437651  0.50749115  0.58606251     0.08500
H231        H  0.04491485  0.45398905  0.65898620     0.07500
N232        N  0.28129338  0.49518869  0.72723502    -0.36300
N233        N  0.28129928  0.49516606  0.77298806    -0.28500
C234        C  0.32625624  0.49563337  0.78807897    -0.03700
C235        C  0.35607858  0.49598934  0.75010574     0.04900
C236        C  0.32624486  0.49567036  0.71213965     0.03000
H237        H  0.33648825  0.49536077  0.82402914     0.08100
H238        H  0.33646917  0.49543300  0.67617653     0.06900
N239        N  0.84912760  0.52626908  0.84416321    -0.27500
N240        N  0.88530586  0.54476460  0.82177407    -0.35300
C241        C  0.92166977  0.54959622  0.85134426     0.00900
C242        C  0.90809989  0.53279702  0.89424427     0.06900
C243        C  0.86207491  0.51777111  0.88826417    -0.06200
H244        H  0.95655199  0.56110229  0.84149516     0.07600
H245        H  0.84003961  0.50079913  0.91377936     0.08800
Cu246      Cu  0.88669581  0.55404394  0.75009857     0.44200
Cu247      Cu  0.78413511  0.51221579  0.81277370     0.42000
Cu248      Cu  0.78414432  0.51217381  0.68741771     0.43900
N249        N  0.88531074  0.54474144  0.67842628    -0.34900
N250        N  0.84913918  0.52622950  0.65603770    -0.29100
C251        C  0.86208974  0.51772940  0.61194086    -0.05200
C252        C  0.90810830  0.53277110  0.60596119     0.07000
C253        C  0.92168045  0.54958421  0.64886110     0.00800
H254        H  0.84005596  0.50074722  0.58642341     0.08500
H255        H  0.95651856  0.56109503  0.65869968     0.07500
N256        N  0.72290618  0.50493496  0.72721670    -0.36300
N257        N  0.72290432  0.50495088  0.77296392    -0.28500
C258        C  0.67807252  0.50155095  0.78805308    -0.03700
C259        C  0.64830980  0.49926719  0.75008570     0.04900
C260        C  0.67807408  0.50152501  0.71211935     0.03000
H261        H  0.66781427  0.50163647  0.82401727     0.08100
H262        H  0.66782097  0.50158524  0.67616396     0.06900
O263        O  0.43079463  0.49628557  0.71178092    -0.74300
O264        O  0.57358551  0.49682393  0.71177009    -0.74100
O265        O  0.50211968  0.42489711  0.71177920    -0.62700
O266        O  0.50211817  0.56796948  0.71178476    -0.71100
O267        O  0.50212436  0.56796375  0.78840437    -0.70700
O268        O  0.50213237  0.42488883  0.78839352    -0.61900
O269        O  0.57359348  0.49682061  0.78840121    -0.74400
O270        O  0.43080633  0.49627437  0.78841673    -0.73200
Cu271      Cu  0.50217355  0.49645422  0.70914671     1.04600
Cu272      Cu  0.50218428  0.49644656  0.79103593     1.04300
C273        C  0.40831235  0.49618814  0.75010095     0.93100
C274        C  0.59608286  0.49737337  0.75008491     0.92200
C275        C  0.50168687  0.40234778  0.75008491     0.84400
C276        C  0.50233287  0.59050326  0.75009503     0.90600
loop_ 
_geom_bond_atom_site_label_1 
_geom_bond_atom_site_label_2 
_geom_bond_distance 
_geom_bond_site_symmetry_2 
_ccdc_geom_bond_type 
O1           C11   1.278       .  A
O1         Cu147   2.020       .  S
O2           C12   1.281       .  A
O2           Cu9   2.040   1_564  S
O3           C13   1.281       .  A
O3         Cu147   2.040   1_565  S
O4           C14   1.278       .  A
O4           Cu9   2.020   1_554  S
O5           C14   1.281       .  A
O5         Cu148   2.040   1_544  S
O6           C13   1.278       .  A
O6          Cu10   2.020       .  S
O7           C12   1.278       .  A
O7         Cu148   2.020   1_554  S
O8           C11   1.281       .  A
O8          Cu10   2.040   1_545  S
Cu9         O139   2.020       .  S
Cu9         O141   2.041   1_545  S
Cu9        Cu148   2.372   1_545  S
Cu10        O143   2.040   1_565  S
Cu10        O145   2.021       .  S
Cu10       Cu147   2.372   1_565  S
C11          C28   1.481       .  S
C12          C42   1.481       .  S
C13          C52   1.481       .  S
C14          C18   1.481       .  S
N15          N16   1.324       .  A
N15          C19   1.351       .  A
N15         Cu23   2.103       .  S
N16          C17   1.350       .  A
N16         Cu22   2.097       .  S
C17          C18   1.386       .  A
C17          H20   1.082       .  S
C18          C19   1.387       .  A
C19          H21   1.082       .  S
Cu22         N25   2.097       .  S
Cu23         N33   2.104       .  S
Cu24         N26   2.103       .  S
Cu24         N32   2.104       .  S
N25          N26   1.324       .  A
N25          C29   1.350       .  A
N26          C27   1.351       .  A
C27          C28   1.387       .  A
C27          H30   1.082       .  S
C28          C29   1.386       .  A
C29          H31   1.082       .  S
N32          N33   1.324       .  A
N32          C36   1.351       .  A
N33          C34   1.351       .  A
C34          C35   1.390       .  A
C34          H37   1.080       .  S
C35         C137   1.490       .  S
C35          C36   1.390       .  A
C36          H38   1.081       .  S
N39          N40   1.324       .  A
N39          C43   1.350       .  A
N39         Cu47   2.100       .  S
N40          C41   1.350       .  A
N40         Cu46   2.099       .  S
C41          C42   1.387       .  A
C41          H44   1.082       .  S
C42          C43   1.387       .  A
C43          H45   1.082       .  S
Cu46         N49   2.099       .  S
Cu47         N57   2.100       .  S
Cu48         N50   2.100       .  S
Cu48         N56   2.100       .  S
N49          N50   1.324       .  A
N49          C53   1.350       .  A
N50          C51   1.350       .  A
C51          C52   1.387       .  A
C51          H54   1.082       .  S
C52          C53   1.387       .  A
C53          H55   1.082       .  S
N56          N57   1.323       .  A
N56          C60   1.351       .  A
N57          C58   1.351       .  A
C58          C59   1.389       .  A
C58          H61   1.080       .  S
C59         C138   1.488       .  S
C59          C60   1.389       .  A
C60          H62   1.080       .  S
O63          C73   1.277       .  A
O63         Cu71   2.014       .  S
O64          C74   1.280       .  A
O64        Cu209   2.033   1_455  S
O65          C75   1.280       .  A
O65         Cu71   2.033   1_455  S
O66          C76   1.277       .  A
O66        Cu209   2.014       .  S
O67          C76   1.281       .  A
O67        Cu210   2.036   1_655  S
O68          C75   1.277       .  A
O68         Cu72   2.017       .  S
O69          C74   1.277       .  A
O69        Cu210   2.017       .  S
O70          C73   1.281       .  A
O70         Cu72   2.036   1_655  S
Cu71        O202   2.031   1_654  S
Cu71        O204   2.015   1_554  S
Cu71        Cu72   2.373   1_655  S
Cu72        O205   2.035   1_454  S
Cu72        O207   2.018   1_554  S
C73         C114   1.476       .  S
C74          C80   1.476       .  S
C75          C90   1.476       .  S
C76         C104   1.476       .  S
N77          N78   1.324       .  A
N77          C81   1.350       .  A
N77         Cu85   2.092       .  S
N78          C79   1.348       .  A
N78         Cu84   2.090       .  S
C79          C80   1.384       .  A
C79          H82   1.082       .  S
C80          C81   1.386       .  A
C81          H83   1.081       .  S
Cu84         N87   2.090       .  S
Cu85         N95   2.092       .  S
Cu86         N88   2.092       .  S
Cu86         N94   2.092       .  S
N87          N88   1.324       .  A
N87          C91   1.348       .  A
N88          C89   1.350       .  A
C89          C90   1.386       .  A
C89          H92   1.081       .  S
C90          C91   1.385       .  A
C91          H93   1.082       .  S
N94          N95   1.324       .  A
N94          C98   1.349       .  A
N95          C96   1.349       .  A
C96          C97   1.386       .  A
C96          H99   1.080       .  S
C97         C135   1.480       .  S
C97          C98   1.386       .  A
C98         H100   1.081       .  S
N101        N102   1.324       .  A
N101        C105   1.350       .  A
N101       Cu109   2.095       .  S
N102        C103   1.348       .  A
N102       Cu108   2.088       .  S
C103        C104   1.384       .  A
C103        H106   1.082       .  S
C104        C105   1.387       .  A
C105        H107   1.082       .  S
Cu108       N111   2.088       .  S
Cu109       N119   2.095       .  S
Cu110       N112   2.095       .  S
Cu110       N118   2.095       .  S
N111        N112   1.324       .  A
N111        C115   1.348       .  A
N112        C113   1.350       .  A
C113        C114   1.387       .  A
C113        H116   1.082       .  S
C114        C115   1.384       .  A
C115        H117   1.081       .  S
N118        N119   1.324       .  A
N118        C122   1.349       .  A
N119        C120   1.349       .  A
C120        C121   1.387       .  A
C120        H123   1.080       .  S
C121        C136   1.483       .  S
C121        C122   1.387       .  A
C122        H124   1.080       .  S
O125        C135   1.279       .  A
O125       Cu133   2.024       .  S
O126        C136   1.279       .  A
O126       Cu133   2.028       .  S
O127        C137   1.281       .  A
O127       Cu133   2.037       .  S
O128        C138   1.280       .  A
O128       Cu133   2.035       .  S
O129        C138   1.280       .  A
O129       Cu134   2.035       .  S
O130        C137   1.281       .  A
O130       Cu134   2.037       .  S
O131        C136   1.279       .  A
O131       Cu134   2.028       .  S
O132        C135   1.279       .  A
O132       Cu134   2.024       .  S
Cu133      Cu134   2.370       .  S
O139        C149   1.278       .  A
O140        C150   1.281       .  A
O140       Cu147   2.041   1_565  S
O141        C151   1.281       .  A
O142        C152   1.278       .  A
O142       Cu147   2.020       .  S
O143        C152   1.281       .  A
O144        C151   1.278       .  A
O144       Cu148   2.021       .  S
O145        C150   1.278       .  A
O146        C149   1.281       .  A
O146       Cu148   2.040   1_545  S
C149        C166   1.481       .  S
C150        C180   1.481       .  S
C151        C190   1.481       .  S
C152        C156   1.481       .  S
N153        N154   1.324       .  A
N153        C157   1.350       .  A
N153       Cu161   2.099       .  S
N154        C155   1.350       .  A
N154       Cu160   2.098       .  S
C155        C156   1.387       .  A
C155        H158   1.082       .  S
C156        C157   1.386       .  A
C157        H159   1.082       .  S
Cu160       N163   2.098       .  S
Cu161       N171   2.099       .  S
Cu162       N164   2.099       .  S
Cu162       N170   2.099       .  S
N163        N164   1.324       .  A
N163        C167   1.350       .  A
N164        C165   1.350       .  A
C165        C166   1.386       .  A
C165        H168   1.083       .  S
C166        C167   1.387       .  A
C167        H169   1.082       .  S
N170        N171   1.323       .  A
N170        C174   1.351       .  A
N171        C172   1.351       .  A
C172        C173   1.389       .  A
C172        H175   1.080       .  S
C173        C275   1.488       .  S
C173        C174   1.389       .  A
C174        H176   1.080       .  S
N177        N178   1.324       .  A
N177        C181   1.350       .  A
N177       Cu185   2.100       .  S
N178        C179   1.350       .  A
N178       Cu184   2.098       .  S
C179        C180   1.386       .  A
C179        H182   1.083       .  S
C180        C181   1.387       .  A
C181        H183   1.081       .  S
Cu184       N187   2.098       .  S
Cu185       N195   2.100       .  S
Cu186       N188   2.100       .  S
Cu186       N194   2.100       .  S
N187        N188   1.324       .  A
N187        C191   1.350       .  A
N188        C189   1.350       .  A
C189        C190   1.387       .  A
C189        H192   1.082       .  S
C190        C191   1.387       .  A
C191        H193   1.082       .  S
N194        N195   1.324       .  A
N194        C198   1.351       .  A
N195        C196   1.351       .  A
C196        C197   1.389       .  A
C196        H199   1.080       .  S
C197        C276   1.487       .  S
C197        C198   1.389       .  A
C198        H200   1.080       .  S
O201        C211   1.277       .  A
O201       Cu209   2.015       .  S
O202        C212   1.280       .  A
O203        C213   1.280       .  A
O203       Cu209   2.032   1_455  S
O204        C214   1.277       .  A
O205        C214   1.281       .  A
O206        C213   1.277       .  A
O206       Cu210   2.018       .  S
O207        C212   1.277       .  A
O208        C211   1.281       .  A
O208       Cu210   2.036   1_655  S
Cu209      Cu210   2.373   1_655  S
C211        C252   1.477       .  S
C212        C218   1.476       .  S
C213        C228   1.476       .  S
C214        C242   1.477       .  S
N215        N216   1.324       .  A
N215        C219   1.350       .  A
N215       Cu223   2.095       .  S
N216        C217   1.347       .  A
N216       Cu222   2.088       .  S
C217        C218   1.384       .  A
C217        H220   1.082       .  S
C218        C219   1.387       .  A
C219        H221   1.081       .  S
Cu222       N225   2.088       .  S
Cu223       N233   2.096       .  S
Cu224       N226   2.095       .  S
Cu224       N232   2.096       .  S
N225        N226   1.324       .  A
N225        C229   1.347       .  A
N226        C227   1.350       .  A
C227        C228   1.386       .  A
C227        H230   1.082       .  S
C228        C229   1.384       .  A
C229        H231   1.081       .  S
N232        N233   1.324       .  A
N232        C236   1.350       .  A
N233        C234   1.350       .  A
C234        C235   1.388       .  A
C234        H237   1.080       .  S
C235        C273   1.484       .  S
C235        C236   1.387       .  A
C236        H238   1.080       .  S
N239        N240   1.324       .  A
N239        C243   1.350       .  A
N239       Cu247   2.096       .  S
N240        C241   1.348       .  A
N240       Cu246   2.091       .  S
C241        C242   1.385       .  A
C241        H244   1.082       .  S
C242        C243   1.386       .  A
C243        H245   1.082       .  S
Cu246       N249   2.091       .  S
Cu247       N257   2.096       .  S
Cu248       N250   2.096       .  S
Cu248       N256   2.097       .  S
N249        N250   1.324       .  A
N249        C253   1.349       .  A
N250        C251   1.350       .  A
C251        C252   1.386       .  A
C251        H254   1.082       .  S
C252        C253   1.385       .  A
C253        H255   1.081       .  S
N256        N257   1.324       .  A
N256        C260   1.350       .  A
N257        C258   1.350       .  A
C258        C259   1.388       .  A
C258        H261   1.081       .  S
C259        C274   1.485       .  S
C259        C260   1.388       .  A
C260        H262   1.080       .  S
O263        C273   1.280       .  A
O263       Cu271   2.029       .  S
O264        C274   1.280       .  A
O264       Cu271   2.030       .  S
O265        C275   1.280       .  A
O265       Cu271   2.034       .  S
O266        C276   1.280       .  A
O266       Cu271   2.033       .  S
O267        C276   1.280       .  A
O267       Cu272   2.033       .  S
O268        C275   1.280       .  A
O268       Cu272   2.034       .  S
O269        C274   1.280       .  A
O269       Cu272   2.030       .  S
O270        C273   1.280       .  A
O270       Cu272   2.029       .  S
Cu271      Cu272   2.370       .  S
