geometry optimzed in LAMMPS
_audit_creation_date              2020-11-30 
_audit_creation_method            'lammps2cif' 
_symmetry_space_group_name_H-M    'P1' 
_symmetry_Int_Tables_number       1 
_symmetry_cell_setting            triclinic 
loop_ 
_symmetry_equiv_pos_as_xyz 
  x,y,z 
_cell_length_a                    36.20203888590407 
_cell_length_b                    36.19611761460154 
_cell_length_c                    37.048996234439706 
_cell_angle_alpha                 89.98426747769109 
_cell_angle_beta                  88.94838414241752 
_cell_angle_gamma                 90.10308139695479 
loop_ 
_atom_site_label 
_atom_site_type_symbol 
_atom_site_fract_x 
_atom_site_fract_y 
_atom_site_fract_z 
_atom_site_charge 
O1          O  0.53072292  0.03885117  0.46705077    -0.71020
O2          O  0.53054843  0.96063151  0.04389556    -0.72000
O3          O  0.53066197  0.96082987  0.46718596    -0.60620
O4          O  0.53068201  0.03944619  0.04376403    -0.69030
O5          O  0.46928264  0.03943752  0.04480037    -0.68580
O6          O  0.46923347  0.96077013  0.46821747    -0.59860
O7          O  0.46914901  0.96062126  0.04492094    -0.72340
O8          O  0.46929448  0.03878744  0.46809987    -0.71120
Cu9        Cu  0.53282749  0.99998839  0.00552457     1.04560
Cu10       Cu  0.46707215  0.99983227  0.50663460     1.04330
C11         C  0.50002755  0.05064441  0.45522795     0.95180
C12         C  0.49981252  0.94819942  0.05627311     0.94320
C13         C  0.49995312  0.94894467  0.45538892     0.86460
C14         C  0.49999068  0.05189623  0.05611221     0.92740
N15         N  0.50018745  0.16876166  0.18070296    -0.25360
N16         N  0.50013659  0.13731491  0.19892342    -0.33220
C17         C  0.50007494  0.10888061  0.17568051     0.02980
C18         C  0.50008549  0.12293806  0.14118450     0.09000
C19         C  0.50015881  0.16098644  0.14506589    -0.04100
H20         H  0.50002891  0.08005494  0.18342384     0.09670
H21         H  0.50020065  0.18141366  0.12373764     0.10870
Cu22       Cu  0.50014774  0.13325812  0.25449981     0.44170
Cu23       Cu  0.50036175  0.22019444  0.20628636     0.41990
Cu24       Cu  0.50058384  0.21630307  0.30567550     0.43880
N25         N  0.50010201  0.13389375  0.31022520    -0.32750
N26         N  0.50022786  0.16470174  0.32933311    -0.27000
C27         C  0.50019383  0.15617157  0.36467404    -0.03110
C28         C  0.50004622  0.11818885  0.36762678     0.09110
C29         C  0.49999104  0.10482616  0.33278648     0.02910
H30         H  0.50031421  0.17610093  0.38643369     0.10560
H31         H  0.49990923  0.07619384  0.32440531     0.09640
N32         N  0.50105513  0.26452141  0.27595129    -0.34200
N33         N  0.50085383  0.26626678  0.24027350    -0.26380
C34         C  0.50114255  0.30203172  0.23033636    -0.01620
C35         C  0.50156678  0.32366849  0.26129742     0.06990
C36         C  0.50153848  0.29891511  0.28956592     0.05080
H37         H  0.50113863  0.31134046  0.20260184     0.10190
H38         H  0.50175963  0.30539919  0.31807334     0.09020
N39         N  0.49996790  0.83123047  0.18083476    -0.25360
N40         N  0.49936137  0.86263267  0.19911083    -0.33220
C41         C  0.49905955  0.89111411  0.17591345     0.02980
C42         C  0.49949539  0.87713380  0.14138999     0.09000
C43         C  0.50007161  0.83908333  0.14520802    -0.04100
H44         H  0.49867119  0.91992021  0.18370496     0.09670
H45         H  0.50062608  0.81870793  0.12384206     0.10870
Cu46       Cu  0.49931732  0.86657393  0.25469496     0.44170
Cu47       Cu  0.50087018  0.77974658  0.20631975     0.41990
Cu48       Cu  0.50264295  0.78348839  0.30566552     0.43880
N49         N  0.49996406  0.86583117  0.31040415    -0.32750
N50         N  0.50127314  0.83500728  0.32943578    -0.27000
C51         C  0.50145131  0.84346351  0.36478529    -0.03110
C52         C  0.50019419  0.88141616  0.36782302     0.09110
C53         C  0.49928218  0.89483661  0.33302410     0.02910
H54         H  0.50244354  0.82350596  0.38649233     0.10560
H55         H  0.49825034  0.92346838  0.32470985     0.09640
N56         N  0.50282871  0.73532353  0.27589522    -0.34200
N57         N  0.50197460  0.73362118  0.24023719    -0.26380
C58         C  0.50187867  0.69786567  0.23028608    -0.01620
C59         C  0.50272360  0.67619501  0.26121926     0.06990
C60         C  0.50336809  0.70091533  0.28948156     0.05080
H61         H  0.50125076  0.68858419  0.20256515     0.10190
H62         H  0.50396302  0.69439835  0.31797319     0.09020
O63         O  0.96171267  0.53060977  0.45863418    -0.71020
O64         O  0.03703484  0.53062097  0.03696883    -0.72000
O65         O  0.04033093  0.53070755  0.46025408    -0.60620
O66         O  0.95892324  0.53051523  0.03534539    -0.69030
O67         O  0.95889771  0.46909282  0.03527796    -0.68580
O68         O  0.04029997  0.46930398  0.46018626    -0.59830
O69         O  0.03701014  0.46920079  0.03690407    -0.72340
O70         O  0.96168229  0.46920779  0.45856225    -0.71120
Cu71       Cu  0.99952477  0.53278509  0.99774555     1.04560
Cu72       Cu  0.99949693  0.46704602  0.99767428     1.04330
C73         C  0.94983010  0.49991236  0.44642367     0.95180
C74         C  0.04848131  0.49990950  0.04942378     0.94320
C75         C  0.05309657  0.50003874  0.44851121     0.86460
C76         C  0.94648275  0.49976960  0.04731705     0.92740
N77         N  0.16257321  0.49966015  0.17325863    -0.25360
N78         N  0.13201023  0.50004705  0.19325642    -0.33220
C79         C  0.10267179  0.50020875  0.17154900     0.02980
C80         C  0.11562964  0.49991148  0.13630515     0.09000
C81         C  0.15365467  0.49956709  0.13817035    -0.04100
H82         H  0.07414245  0.50050171  0.18076680     0.09670
H83         H  0.17334416  0.49926106  0.11584569     0.10870
Cu84       Cu  0.13259769  0.50026664  0.24898468     0.44170
Cu85       Cu  0.21423812  0.49929053  0.19576283     0.41990
Cu86       Cu  0.22092755  0.49963879  0.29484722     0.43880
N87         N  0.13792186  0.50023533  0.30438815    -0.32750
N88         N  0.16962071  0.49998528  0.32164678    -0.27000
C89         C  0.16229899  0.49995227  0.35750776    -0.03110
C90         C  0.12431904  0.50019735  0.36254114     0.09110
C91         C  0.10981157  0.50036952  0.32850368     0.02910
H92         H  0.18299374  0.49973230  0.37821066     0.10560
H93         H  0.08088420  0.50053613  0.32165492     0.09640
N94         N  0.26618320  0.49935229  0.25897257    -0.34200
N95         N  0.26314329  0.49920192  0.22342581    -0.26380
C96         C  0.29695359  0.49911995  0.20799317    -0.01620
C97         C  0.32273664  0.49923346  0.23483580     0.06990
C98         C  0.30235431  0.49937374  0.26698128     0.05080
H99         H  0.30234645  0.49904721  0.17916649     0.10190
H100        H  0.31282458  0.49953004  0.29413523     0.09020
N101        N  0.83173667  0.49985994  0.17500059    -0.25360
N102        N  0.86305326  0.49958162  0.19280502    -0.33220
C103        C  0.89153739  0.49942028  0.16907784     0.02980
C104        C  0.87740230  0.49960387  0.13481919     0.09000
C105        C  0.83946183  0.49988385  0.13930364    -0.04100
H106        H  0.92036157  0.49923084  0.17630020     0.09670
H107        H  0.81903559  0.50012547  0.11834688     0.10870
Cu108      Cu  0.86601904  0.49955958  0.24842131     0.44170
Cu109      Cu  0.78050705  0.50025985  0.20078260     0.41990
Cu110      Cu  0.78158305  0.50052785  0.30032073     0.43880
N111        N  0.86434947  0.49978458  0.30416367    -0.32750
N112        N  0.83343112  0.50016531  0.32371845    -0.27000
C113        C  0.84205090  0.50026239  0.35897730    -0.03110
C114        C  0.88014556  0.49992494  0.36129416     0.09110
C115        C  0.89338892  0.49962971  0.32621240     0.02910
H116        H  0.82214410  0.50056673  0.38111714     0.10560
H117        H  0.92201228  0.49934374  0.31728840     0.09640
N118        N  0.73405681  0.50065298  0.26947995    -0.34200
N119        N  0.73369167  0.50054491  0.23375610    -0.26380
C120        C  0.69845991  0.50054405  0.22281409    -0.01620
C121        C  0.67555883  0.50065323  0.25312025     0.06990
C122        C  0.69902002  0.50072780  0.28212591     0.05080
H123        H  0.69035502  0.50041579  0.19486186     0.10190
H124        H  0.69117300  0.50076853  0.31045181     0.09020
O125        O  0.49664985  0.44510293  0.20881964    -0.71020
O126        O  0.49646167  0.55478530  0.20882737    -0.72000
O127        O  0.55212672  0.50014848  0.20266538    -0.60620
O128        O  0.44118405  0.49973393  0.21704098    -0.69030
O129        O  0.44847872  0.49981525  0.27640805    -0.68580
O130        O  0.55775646  0.50008121  0.26220480    -0.59830
O131        O  0.50306817  0.55593134  0.26828188    -0.72340
O132        O  0.50308466  0.44395202  0.26829540    -0.71120
Cu133      Cu  0.49633838  0.49994210  0.20729372     1.04560
Cu134      Cu  0.50334373  0.49994429  0.27091457     1.04330
C135        C  0.49989041  0.42708033  0.23810129     0.95180
C136        C  0.49980221  0.57280598  0.23809527     0.94320
C137        C  0.57237752  0.50018788  0.23060359     0.86460
C138        C  0.42749702  0.49970939  0.24918385     0.92740
C139        C  0.63485909  0.50055638  0.25549230    -0.14510
C140        C  0.61302364  0.50035952  0.22646977    -0.29680
H141        H  0.62251646  0.50061331  0.28244885     0.14520
H142        H  0.62499096  0.50031939  0.19939487     0.15090
C143        C  0.38720759  0.49956119  0.25571424    -0.14510
C144        C  0.36312307  0.49932233  0.22870135    -0.29680
H145        H  0.37727226  0.49965179  0.28354280     0.14520
H146        H  0.37323800  0.49922074  0.20090430     0.15090
C147        C  0.09375313  0.49990892  0.10438779    -0.11350
C148        C  0.07394138  0.49990629  0.07860932    -0.12910
C149        C  0.10313653  0.50015679  0.39576264    -0.11350
C150        C  0.08159478  0.50011160  0.42100641    -0.12910
C151        C  0.91906454  0.49969166  0.07571809    -0.11350
C152        C  0.89850602  0.49963988  0.10165597    -0.12910
C153        C  0.92312371  0.49992226  0.41819804    -0.11350
C154        C  0.90220001  0.49992928  0.39320721    -0.12910
C155        C  0.50274819  0.63551005  0.26458878    -0.14510
C156        C  0.49989194  0.61341343  0.23577785    -0.29680
H157        H  0.50489253  0.62358884  0.29138654     0.14520
H158        H  0.49740684  0.62537364  0.20906794     0.15090
C159        C  0.50191756  0.36435217  0.26466971    -0.14510
C160        C  0.49988667  0.38647470  0.23579029    -0.29680
H161        H  0.50355192  0.37625012  0.29151716     0.14520
H162        H  0.49785189  0.37453652  0.20903000     0.15090
C163        C  0.50001211  0.07985614  0.08366514    -0.11350
C164        C  0.50004456  0.10135993  0.10856686    -0.12910
C165        C  0.50005648  0.09664561  0.40011438    -0.11350
C166        C  0.50006275  0.07673552  0.42615576    -0.12910
C167        C  0.49972507  0.92028400  0.08388596    -0.11350
C168        C  0.49962614  0.89877536  0.10879761    -0.12910
C169        C  0.50005058  0.90289625  0.40034089    -0.11350
C170        C  0.49997496  0.92280275  0.42637520    -0.12910
O171        O  0.53076994  0.03894998  0.96705271    -0.71020
O172        O  0.53056989  0.96054048  0.54389350    -0.72000
O173        O  0.53065067  0.96092119  0.96718756    -0.60620
O174        O  0.53064796  0.03934843  0.54375759    -0.69030
O175        O  0.46924805  0.03929586  0.54480357    -0.68580
O176        O  0.46922270  0.96090898  0.96821498    -0.59860
O177        O  0.46917000  0.96048447  0.54492623    -0.72340
O178        O  0.46934198  0.03893101  0.96809391    -0.71120
Cu179      Cu  0.53281523  0.99989418  0.50552128     1.04560
Cu180      Cu  0.46708527  0.99997506  0.00662989     1.04330
C181        C  0.50008512  0.05076651  0.95522540     0.95180
C182        C  0.49984448  0.94809128  0.55627903     0.94320
C183        C  0.49993340  0.94905334  0.95539315     0.86460
C184        C  0.49994968  0.05177642  0.55610936     0.92740
N185        N  0.50012176  0.16870350  0.68063512    -0.25360
N186        N  0.50011017  0.13727174  0.69887976    -0.33220
C187        C  0.50005770  0.10881894  0.67565840     0.02980
C188        C  0.50003312  0.12284997  0.64115293     0.09000
C189        C  0.50007645  0.16090033  0.64500501    -0.04100
H190        H  0.50004152  0.07999934  0.68342272     0.09670
H191        H  0.50008647  0.18131048  0.62366174     0.10870
Cu192      Cu  0.50016247  0.13325774  0.75445868     0.44170
Cu193      Cu  0.50026851  0.22015856  0.70616871     0.41990
Cu194      Cu  0.50060056  0.21634117  0.80555826     0.43880
N195        N  0.50015964  0.13393741  0.81018323    -0.32750
N196        N  0.50028935  0.16476160  0.82926585    -0.27000
C197        C  0.50027554  0.15626071  0.86461385    -0.03110
C198        C  0.50013746  0.11827956  0.86759745     0.09110
C199        C  0.50006607  0.10488869  0.83276754     0.02910
H200        H  0.50039520  0.17620840  0.88635746     0.10560
H201        H  0.49997815  0.07624947  0.82440906     0.09640
N202        N  0.50099820  0.26453620  0.77579491    -0.34200
N203        N  0.50075498  0.26625686  0.74011692    -0.26380
C204        C  0.50101107  0.30201523  0.73015502    -0.01620
C205        C  0.50145895  0.32367229  0.76110089     0.06990
C206        C  0.50147671  0.29893930  0.78938506     0.05080
H207        H  0.50097652  0.31130626  0.70241526     0.10190
H208        H  0.50173392  0.30544385  0.81788709     0.09020
N209        N  0.49992106  0.83121216  0.68091036    -0.25360
N210        N  0.49950188  0.86262443  0.69917052    -0.33220
C211        C  0.49929792  0.89109611  0.67595847     0.02980
C212        C  0.49960227  0.87709453  0.64144330     0.09000
C213        C  0.49999747  0.83904476  0.64528112    -0.04100
H214        H  0.49903319  0.91990771  0.68373401     0.09670
H215        H  0.50038749  0.81865512  0.62392732     0.10870
Cu216      Cu  0.49946903  0.86656815  0.75475420     0.44170
Cu217      Cu  0.50056728  0.77974475  0.70642099     0.41990
Cu218      Cu  0.50178183  0.78344732  0.80579287     0.43880
N219        N  0.49988631  0.86582635  0.81046966    -0.32750
N220        N  0.50078041  0.83499878  0.82952860    -0.27000
C221        C  0.50089764  0.84347567  0.86487617    -0.03110
C222        C  0.50003771  0.88144390  0.86788218     0.09110
C223        C  0.49941796  0.89485091  0.83306766     0.02910
H224        H  0.50158847  0.82352187  0.88660347     0.10560
H225        H  0.49872347  0.92348745  0.82472765     0.09640
N226        N  0.50208442  0.73528897  0.77599512    -0.34200
N227        N  0.50146899  0.73361356  0.74032683    -0.26380
C228        C  0.50153475  0.69786964  0.73034013    -0.01620
C229        C  0.50223997  0.67617192  0.76125882     0.06990
C230        C  0.50262289  0.70086759  0.78955356     0.05080
H231        H  0.50114029  0.68861611  0.70260224     0.10190
H232        H  0.50308818  0.69432422  0.81804405     0.09020
O233        O  0.96174519  0.53062349  0.95863113    -0.71020
O234        O  0.03699185  0.53059803  0.53697501    -0.72000
O235        O  0.04037099  0.53072611  0.96024630    -0.60620
O236        O  0.95888705  0.53049681  0.53534838    -0.69030
O237        O  0.95885840  0.46907386  0.53527704    -0.68580
O238        O  0.04034373  0.46932314  0.96018154    -0.59830
O239        O  0.03696371  0.46917739  0.53690684    -0.72340
O240        O  0.96171823  0.46922194  0.95856283    -0.71120
Cu241      Cu  0.99948667  0.53276696  0.49775072     1.04560
Cu242      Cu  0.99945517  0.46702698  0.49767569     1.04330
C243        C  0.94985888  0.49992483  0.94642624     0.95180
C244        C  0.04843291  0.49988492  0.54943028     0.94320
C245        C  0.05314146  0.50005782  0.94850613     0.86460
C246        C  0.94644926  0.49975070  0.54732059     0.92740
N247        N  0.16253393  0.49971403  0.67324291    -0.25360
N248        N  0.13198022  0.50003022  0.69325521    -0.33220
C249        C  0.10263098  0.50014507  0.67156115     0.02980
C250        C  0.11557484  0.49989027  0.63631200     0.09000
C251        C  0.15360051  0.49962029  0.63815960    -0.04100
H252        H  0.07410497  0.50038493  0.68079117     0.09670
H253        H  0.17328086  0.49937099  0.61582648     0.10870
Cu254      Cu  0.13260371  0.50024140  0.74898216     0.44170
Cu255      Cu  0.21420712  0.49945034  0.69571746     0.41990
Cu256      Cu  0.22096627  0.49979739  0.79479728     0.43880
N257        N  0.13795959  0.50024150  0.80438186    -0.32750
N258        N  0.16966687  0.50006146  0.82162753    -0.27000
C259        C  0.16235711  0.50004032  0.85749208    -0.03110
C260        C  0.12437645  0.50021897  0.86253981     0.09110
C261        C  0.10985799  0.50034106  0.82850717     0.02910
H262        H  0.18305989  0.49987745  0.87818786     0.10560
H263        H  0.08092775  0.50045577  0.82166798     0.09640
N264        N  0.26619927  0.49956954  0.75888351    -0.34200
N265        N  0.26313032  0.49942721  0.72333964    -0.26380
C266        C  0.29692677  0.49936529  0.70787712    -0.01620
C267        C  0.32273392  0.49947854  0.73469617     0.06990
C268        C  0.30237871  0.49960293  0.76685972     0.05080
H269        H  0.30229313  0.49928696  0.67904617     0.10190
H270        H  0.31287299  0.49974387  0.79400443     0.09020
N271        N  0.83175198  0.49975879  0.67503108    -0.25360
N272        N  0.86306942  0.49956893  0.69283441    -0.33220
C273        C  0.89155223  0.49945406  0.66910516     0.02980
C274        C  0.87741160  0.49957607  0.63484797     0.09000
C275        C  0.83947238  0.49977053  0.63933459    -0.04100
H276        H  0.92037770  0.49933185  0.67632465     0.09670
H277        H  0.81904324  0.49994214  0.61837978     0.10870
Cu278      Cu  0.86602290  0.49958290  0.74845103     0.44170
Cu279      Cu  0.78052800  0.50005718  0.70080978     0.41990
Cu280      Cu  0.78155986  0.50034013  0.80034569     0.43880
N281        N  0.86433609  0.49978884  0.80419290    -0.32750
N282        N  0.83341555  0.50008710  0.82374706    -0.27000
C283        C  0.84203742  0.50017875  0.85900667    -0.03110
C284        C  0.88013445  0.49992446  0.86132326     0.09110
C285        C  0.89337604  0.49968290  0.82624110     0.02910
H286        H  0.82213071  0.50041711  0.88114745     0.10560
H287        H  0.92199974  0.49945860  0.81731598     0.09640
N288        N  0.73404169  0.50040383  0.76947956    -0.34200
N289        N  0.73370041  0.50029375  0.73375513    -0.26380
C290        C  0.69847866  0.50028801  0.72278615    -0.01620
C291        C  0.67555473  0.50039701  0.75307419     0.06990
C292        C  0.69899422  0.50047277  0.78209913     0.05080
H293        H  0.69039653  0.50017205  0.69482719     0.10190
H294        H  0.69112469  0.50052975  0.81041935     0.09020
O295        O  0.49659382  0.44511842  0.70861237    -0.71020
O296        O  0.49656050  0.55480864  0.70869265    -0.72000
O297        O  0.55215754  0.50008998  0.70252005    -0.60620
O298        O  0.44119654  0.49983193  0.71684908    -0.69030
O299        O  0.44847840  0.49983344  0.77621830    -0.68580
O300        O  0.55775037  0.50001044  0.76206304    -0.59830
O301        O  0.50309195  0.55590311  0.76815742    -0.72340
O302        O  0.50303146  0.44393259  0.76808705    -0.71120
Cu303      Cu  0.49636227  0.49996374  0.70712125     1.04560
Cu304      Cu  0.50333624  0.49991736  0.77074599     1.04330
C305        C  0.49981629  0.42707833  0.73788656     0.95180
C306        C  0.49985784  0.57280378  0.73798164     0.94320
C307        C  0.57239146  0.50009662  0.73047102     0.86460
C308        C  0.42750330  0.49979216  0.74899061     0.92740
C309        C  0.63485286  0.50033804  0.75540989    -0.14510
C310        C  0.61304147  0.50020521  0.72636769    -0.29680
H311        H  0.62248742  0.50038513  0.78235669     0.14520
H312        H  0.62503086  0.50017533  0.69930178     0.15090
C313        C  0.38721588  0.49969959  0.75552709    -0.14510
C314        C  0.36311667  0.49954300  0.72852818    -0.29680
H315        H  0.37729291  0.49975514  0.78335970     0.14520
H316        H  0.37321481  0.49947239  0.70072542     0.15090
C317        C  0.09368983  0.49988159  0.60440245    -0.11350
C318        C  0.07388324  0.49987865  0.57862149    -0.12910
C319        C  0.10319807  0.50017831  0.89576669    -0.11350
C320        C  0.08164871  0.50013150  0.92100636    -0.12910
C321        C  0.91904590  0.49967176  0.57573192    -0.11350
C322        C  0.89850468  0.49961686  0.60168100    -0.12910
C323        C  0.92313604  0.49993127  0.91821289    -0.11350
C324        C  0.90219647  0.49993446  0.89323340    -0.12910
C325        C  0.50241103  0.63548303  0.76457688    -0.14510
C326        C  0.49990525  0.61341325  0.73570789    -0.29680
H327        H  0.50434668  0.62353542  0.79138239     0.14520
H328        H  0.49760773  0.62539716  0.70898887     0.15090
C329        C  0.50181602  0.36435597  0.76445211    -0.14510
C330        C  0.49977228  0.38647256  0.73556924    -0.29680
H331        H  0.50348098  0.37626139  0.79129413     0.14520
H332        H  0.49771144  0.37453171  0.70881217     0.15090
C333        C  0.49995770  0.07973844  0.58365759    -0.11350
C334        C  0.49998767  0.10125032  0.60855116    -0.12910
C335        C  0.50014688  0.09675942  0.90010158    -0.11350
C336        C  0.50014268  0.07685729  0.92615021    -0.12910
C337        C  0.49978160  0.92019558  0.58390782    -0.11350
C338        C  0.49970517  0.89871150  0.60883788    -0.12910
C339        C  0.49996337  0.90295154  0.90038401    -0.11350
C340        C  0.49993197  0.92288796  0.92639727    -0.12910
loop_ 
_geom_bond_atom_site_label_1 
_geom_bond_atom_site_label_2 
_geom_bond_distance 
_geom_bond_site_symmetry_2 
_ccdc_geom_bond_type 
O1           C11   1.276       .  A
O1         Cu179   2.007   1_545  S
O2           C12   1.277       .  A
O2           Cu9   2.013       .  S
O3           C13   1.276       .  A
O3         Cu179   2.007       .  S
O4           C14   1.277       .  A
O4           Cu9   2.013   1_545  S
O5           C14   1.277       .  A
O5         Cu180   2.013   1_545  S
O6           C13   1.276       .  A
O6          Cu10   2.007       .  S
O7           C12   1.277       .  A
O7         Cu180   2.013       .  S
O8           C11   1.276       .  A
O8          Cu10   2.007   1_545  S
Cu9         O171   2.007   1_564  S
Cu9         O173   2.007   1_554  S
Cu9        Cu180   2.380       .  S
Cu10        O175   2.013   1_565  S
Cu10        O177   2.012       .  S
Cu10       Cu179   2.380       .  S
C11         C166   1.432       .  S
C12         C167   1.438       .  S
C13         C170   1.432       .  S
C14         C163   1.438       .  S
N15          N16   1.323       .  A
N15          C19   1.350       .  A
N15         Cu23   2.089       .  S
N16          C17   1.342       .  A
N16         Cu22   2.064       .  S
C17          C18   1.375       .  A
C17          H20   1.082       .  S
C18         C164   1.439       .  S
C18          C19   1.385       .  A
C19          H21   1.082       .  S
Cu22         N25   2.065       .  S
Cu23         N33   2.090       .  S
Cu24         N26   2.063       .  S
Cu24         N32   2.063       .  S
N25          N26   1.321       .  A
N25          C29   1.344       .  A
N26          C27   1.345       .  A
C27          C28   1.379       .  A
C27          H30   1.082       .  S
C28         C165   1.434       .  S
C28          C29   1.379       .  A
C29          H31   1.082       .  S
N32          N33   1.323       .  A
N32          C36   1.344       .  A
N33          C34   1.346       .  A
C34          C35   1.389       .  A
C34          H37   1.081       .  S
C35          C36   1.378       .  A
C35         C159   1.478       .  S
C36          H38   1.082       .  S
N39          N40   1.323       .  A
N39          C43   1.350       .  A
N39         Cu47   2.089       .  S
N40          C41   1.342       .  A
N40         Cu46   2.064       .  S
C41          C42   1.375       .  A
C41          H44   1.082       .  S
C42         C168   1.439       .  S
C42          C43   1.385       .  A
C43          H45   1.082       .  S
Cu46         N49   2.065       .  S
Cu47         N57   2.090       .  S
Cu48         N50   2.063       .  S
Cu48         N56   2.063       .  S
N49          N50   1.321       .  A
N49          C53   1.344       .  A
N50          C51   1.345       .  A
C51          C52   1.379       .  A
C51          H54   1.082       .  S
C52         C169   1.434       .  S
C52          C53   1.379       .  A
C53          H55   1.082       .  S
N56          N57   1.323       .  A
N56          C60   1.343       .  A
N57          C58   1.346       .  A
C58          C59   1.389       .  A
C58          H61   1.081       .  S
C59          C60   1.378       .  A
C59         C155   1.478       .  S
C60          H62   1.082       .  S
O63          C73   1.277       .  A
O63        Cu241   2.012       .  S
O64          C74   1.276       .  A
O64         Cu71   2.009   1_454  S
O65          C75   1.277       .  A
O65        Cu241   2.012   1_455  S
O66          C76   1.276       .  A
O66         Cu71   2.008   1_554  S
O67          C76   1.276       .  A
O67         Cu72   2.008   1_554  S
O68          C75   1.277       .  A
O68        Cu242   2.012   1_455  S
O69          C74   1.276       .  A
O69         Cu72   2.009   1_454  S
O70          C73   1.277       .  A
O70        Cu242   2.012       .  S
Cu71        O233   2.012       .  S
Cu71        O235   2.012   1_655  S
Cu71        Cu72   2.379       .  S
Cu72        O238   2.012   1_655  S
Cu72        O240   2.012       .  S
C73         C153   1.437       .  S
C74         C148   1.434       .  S
C75         C150   1.437       .  S
C76         C151   1.433       .  S
N77          N78   1.320       .  A
N77          C81   1.345       .  A
N77         Cu85   2.062       .  S
N78          C79   1.344       .  A
N78         Cu84   2.065       .  S
C79          C80   1.379       .  A
C79          H82   1.082       .  S
C80         C147   1.435       .  S
C80          C81   1.380       .  A
C81          H83   1.082       .  S
Cu84         N87   2.065       .  S
Cu85         N95   2.062       .  S
Cu86         N88   2.090       .  S
Cu86         N94   2.091       .  S
N87          N88   1.324       .  A
N87          C91   1.342       .  A
N88          C89   1.350       .  A
C89          C90   1.384       .  A
C89          H92   1.082       .  S
C90         C149   1.438       .  S
C90          C91   1.375       .  A
C91          H93   1.082       .  S
N94          N95   1.324       .  A
N94          C98   1.348       .  A
N95          C96   1.341       .  A
C96          C97   1.376       .  A
C96          H99   1.082       .  S
C97          C98   1.389       .  A
C97         C144   1.476       .  S
C98         H100   1.082       .  S
N101        N102   1.322       .  A
N101        C105   1.347       .  A
N101       Cu109   2.071       .  S
N102        C103   1.343       .  A
N102       Cu108   2.065       .  S
C103        C104   1.377       .  A
C103        H106   1.082       .  S
C104        C152   1.435       .  S
C104        C105   1.381       .  A
C105        H107   1.082       .  S
Cu108       N111   2.065       .  S
Cu109       N119   2.071       .  S
Cu110       N112   2.082       .  S
Cu110       N118   2.083       .  S
N111        N112   1.322       .  A
N111        C115   1.343       .  A
N112        C113   1.349       .  A
C113        C114   1.383       .  A
C113        H116   1.082       .  S
C114        C154   1.439       .  S
C114        C115   1.377       .  A
C115        H117   1.082       .  S
N118        N119   1.324       .  A
N118        C122   1.344       .  A
N119        C120   1.345       .  A
C120        C121   1.383       .  A
C120        H123   1.082       .  S
C121        C122   1.382       .  A
C121        C139   1.474       .  S
C122        H124   1.082       .  S
O125        C135   1.273       .  A
O125       Cu133   1.986       .  S
O126        C136   1.273       .  A
O126       Cu133   1.986       .  S
O127        C137   1.279       .  A
O127       Cu133   2.024       .  S
O128        C138   1.281       .  A
O128       Cu133   2.023       .  S
O129        C138   1.274       .  A
O129       Cu134   1.993       .  S
O130        C137   1.276       .  A
O130       Cu134   1.990       .  S
O131        C136   1.282       .  A
O131       Cu134   2.029       .  S
O132        C135   1.282       .  A
O132       Cu134   2.029       .  S
Cu133      Cu134   2.375       .  S
C135        C160   1.472       .  S
C136        C156   1.472       .  S
C137        C140   1.477       .  S
C138        C143   1.474       .  S
C139        C140   1.346       .  D
C139        H141   1.087       .  S
C140        H142   1.085       .  S
C143        C144   1.339       .  D
C143        H145   1.086       .  S
C144        H146   1.087       .  S
C147        C148   1.205       .  T
C149        C150   1.207       .  T
C151        C152   1.205       .  T
C153        C154   1.207       .  T
C155        C156   1.339       .  D
C155        H157   1.087       .  S
C156        H158   1.085       .  S
C159        C160   1.339       .  D
C159        H161   1.087       .  S
C160        H162   1.085       .  S
C163        C164   1.207       .  T
C165        C166   1.204       .  T
C167        C168   1.207       .  T
C169        C170   1.204       .  T
O171        C181   1.276       .  A
O172        C182   1.277       .  A
O172       Cu179   2.013       .  S
O173        C183   1.276       .  A
O174        C184   1.277       .  A
O174       Cu179   2.012   1_545  S
O175        C184   1.277       .  A
O176        C183   1.276       .  A
O176       Cu180   2.007   1_556  S
O177        C182   1.277       .  A
O178        C181   1.276       .  A
O178       Cu180   2.007   1_546  S
C181        C336   1.432       .  S
C182        C337   1.438       .  S
C183        C340   1.432       .  S
C184        C333   1.438       .  S
N185        N186   1.323       .  A
N185        C189   1.350       .  A
N185       Cu193   2.089       .  S
N186        C187   1.342       .  A
N186       Cu192   2.064       .  S
C187        C188   1.375       .  A
C187        H190   1.082       .  S
C188        C334   1.439       .  S
C188        C189   1.385       .  A
C189        H191   1.082       .  S
Cu192       N195   2.065       .  S
Cu193       N203   2.090       .  S
Cu194       N196   2.063       .  S
Cu194       N202   2.063       .  S
N195        N196   1.321       .  A
N195        C199   1.344       .  A
N196        C197   1.345       .  A
C197        C198   1.379       .  A
C197        H200   1.082       .  S
C198        C335   1.434       .  S
C198        C199   1.379       .  A
C199        H201   1.082       .  S
N202        N203   1.323       .  A
N202        C206   1.344       .  A
N203        C204   1.346       .  A
C204        C205   1.389       .  A
C204        H207   1.081       .  S
C205        C206   1.378       .  A
C205        C329   1.478       .  S
C206        H208   1.082       .  S
N209        N210   1.323       .  A
N209        C213   1.350       .  A
N209       Cu217   2.089       .  S
N210        C211   1.342       .  A
N210       Cu216   2.064       .  S
C211        C212   1.376       .  A
C211        H214   1.082       .  S
C212        C338   1.439       .  S
C212        C213   1.385       .  A
C213        H215   1.082       .  S
Cu216       N219   2.065       .  S
Cu217       N227   2.090       .  S
Cu218       N220   2.063       .  S
Cu218       N226   2.064       .  S
N219        N220   1.321       .  A
N219        C223   1.343       .  A
N220        C221   1.345       .  A
C221        C222   1.379       .  A
C221        H224   1.082       .  S
C222        C339   1.434       .  S
C222        C223   1.379       .  A
C223        H225   1.082       .  S
N226        N227   1.323       .  A
N226        C230   1.344       .  A
N227        C228   1.346       .  A
C228        C229   1.389       .  A
C228        H231   1.081       .  S
C229        C230   1.378       .  A
C229        C325   1.478       .  S
C230        H232   1.082       .  S
O233        C243   1.277       .  A
O234        C244   1.276       .  A
O234       Cu241   2.009   1_455  S
O235        C245   1.277       .  A
O236        C246   1.276       .  A
O236       Cu241   2.008       .  S
O237        C246   1.276       .  A
O237       Cu242   2.008       .  S
O238        C245   1.277       .  A
O239        C244   1.276       .  A
O239       Cu242   2.009   1_455  S
O240        C243   1.277       .  A
Cu241      Cu242   2.380       .  S
C243        C323   1.437       .  S
C244        C318   1.434       .  S
C245        C320   1.437       .  S
C246        C321   1.433       .  S
N247        N248   1.320       .  A
N247        C251   1.345       .  A
N247       Cu255   2.062       .  S
N248        C249   1.344       .  A
N248       Cu254   2.065       .  S
C249        C250   1.379       .  A
C249        H252   1.082       .  S
C250        C317   1.435       .  S
C250        C251   1.380       .  A
C251        H253   1.082       .  S
Cu254       N257   2.065       .  S
Cu255       N265   2.062       .  S
Cu256       N258   2.090       .  S
Cu256       N264   2.091       .  S
N257        N258   1.324       .  A
N257        C261   1.342       .  A
N258        C259   1.350       .  A
C259        C260   1.384       .  A
C259        H262   1.082       .  S
C260        C319   1.438       .  S
C260        C261   1.375       .  A
C261        H263   1.082       .  S
N264        N265   1.324       .  A
N264        C268   1.348       .  A
N265        C266   1.341       .  A
C266        C267   1.376       .  A
C266        H269   1.082       .  S
C267        C268   1.390       .  A
C267        C314   1.476       .  S
C268        H270   1.082       .  S
N271        N272   1.322       .  A
N271        C275   1.347       .  A
N271       Cu279   2.070       .  S
N272        C273   1.343       .  A
N272       Cu278   2.065       .  S
C273        C274   1.377       .  A
C273        H276   1.082       .  S
C274        C322   1.435       .  S
C274        C275   1.380       .  A
C275        H277   1.082       .  S
Cu278       N281   2.065       .  S
Cu279       N289   2.071       .  S
Cu280       N282   2.082       .  S
Cu280       N288   2.083       .  S
N281        N282   1.322       .  A
N281        C285   1.343       .  A
N282        C283   1.349       .  A
C283        C284   1.383       .  A
C283        H286   1.082       .  S
C284        C324   1.439       .  S
C284        C285   1.377       .  A
C285        H287   1.082       .  S
N288        N289   1.324       .  A
N288        C292   1.344       .  A
N289        C290   1.345       .  A
C290        C291   1.383       .  A
C290        H293   1.082       .  S
C291        C292   1.382       .  A
C291        C309   1.474       .  S
C292        H294   1.082       .  S
O295        C305   1.273       .  A
O295       Cu303   1.986       .  S
O296        C306   1.273       .  A
O296       Cu303   1.986       .  S
O297        C307   1.279       .  A
O297       Cu303   2.024       .  S
O298        C308   1.281       .  A
O298       Cu303   2.023       .  S
O299        C308   1.274       .  A
O299       Cu304   1.993       .  S
O300        C307   1.276       .  A
O300       Cu304   1.990       .  S
O301        C306   1.282       .  A
O301       Cu304   2.029       .  S
O302        C305   1.282       .  A
O302       Cu304   2.029       .  S
Cu303      Cu304   2.375       .  S
C305        C330   1.472       .  S
C306        C326   1.472       .  S
C307        C310   1.477       .  S
C308        C313   1.474       .  S
C309        C310   1.346       .  D
C309        H311   1.087       .  S
C310        H312   1.085       .  S
C313        C314   1.339       .  D
C313        H315   1.086       .  S
C314        H316   1.087       .  S
C317        C318   1.205       .  T
C319        C320   1.207       .  T
C321        C322   1.205       .  T
C323        C324   1.207       .  T
C325        C326   1.339       .  D
C325        H327   1.087       .  S
C326        H328   1.085       .  S
C329        C330   1.339       .  D
C329        H331   1.087       .  S
C330        H332   1.085       .  S
C333        C334   1.207       .  T
C335        C336   1.204       .  T
C337        C338   1.207       .  T
C339        C340   1.204       .  T
