geometry optimzed in LAMMPS
_audit_creation_date              2020-11-30 
_audit_creation_method            'lammps2cif' 
_symmetry_space_group_name_H-M    'P1' 
_symmetry_Int_Tables_number       1 
_symmetry_cell_setting            triclinic 
loop_ 
_symmetry_equiv_pos_as_xyz 
  x,y,z 
_cell_length_a                    50.7072308 
_cell_length_b                    50.81826609923758 
_cell_length_c                    25.523062057899878 
_cell_angle_alpha                 90.04261503475031 
_cell_angle_beta                  89.67882712759734 
_cell_angle_gamma                 89.70556296471901 
loop_ 
_atom_site_label 
_atom_site_type_symbol 
_atom_site_fract_x 
_atom_site_fract_y 
_atom_site_fract_z 
_atom_site_charge 
N1          N  0.50627004  0.01069262  0.93006440    -0.36600
N2          N  0.50560498  0.97183142  0.01429734    -0.57100
N3          N  0.49848208  0.01488194  0.08835424    -0.36600
N4          N  0.50212083  0.05331405  0.00467895    -0.57100
C5          C  0.51439507  0.98870925  0.90459141     0.27000
C6          C  0.51266530  0.03153913  0.89952018     0.27000
C7          C  0.50417019  0.99442173  0.12039559     0.27000
C8          C  0.50334772  0.03725039  0.11547512     0.27000
C9          C  0.50216886  0.95585052  0.97246559     0.35600
C10         C  0.49776643  0.95811782  0.05706058     0.35600
C11         C  0.49875519  0.06720129  0.96015042     0.35600
C12         C  0.49519907  0.06948112  0.04444511     0.35600
C13         C  0.52636292  0.99572703  0.85763811    -0.21800
C14         C  0.52513968  0.02274444  0.85433327    -0.21800
C15         C  0.51302226  0.00390621  0.16809337    -0.21800
C16         C  0.51246345  0.03091864  0.16501599    -0.21800
C17         C  0.49224440  0.93182603  0.98878070    -0.22900
C18         C  0.48940656  0.93328116  0.04234496    -0.22900
C19         C  0.48967934  0.09234350  0.97160304    -0.22900
C20         C  0.48736563  0.09377470  0.02516062    -0.22900
C21         C  0.50872651  0.96252831  0.92008782    -0.18200
C22         C  0.50586601  0.05807869  0.90984292    -0.18200
C23         C  0.49810062  0.06316177  0.09787243    -0.18200
C24         C  0.49925530  0.96757303  0.10919490    -0.18200
H25         H  0.53457029  0.98267806  0.82817570     0.14700
H26         H  0.53226399  0.03454663  0.82198472     0.14700
H27         H  0.51891997  0.99252882  0.20192721     0.14700
H28         H  0.51787169  0.04437196  0.19599692     0.14700
H29         H  0.48730416  0.91506307  0.96466058     0.12900
H30         H  0.48188066  0.91785141  0.06739788     0.12900
H31         H  0.48557945  0.10811956  0.94431842     0.12900
H32         H  0.48107478  0.11086664  0.04734736     0.12900
H33         H  0.49399935  0.01116579  0.96275689     0.26200
H34         H  0.48868948  0.01363299  0.05278118     0.26200
N35         N  0.49364902  0.18815820  0.61226886    -0.27200
N36         N  0.48215043  0.16952633  0.58461637    -0.35100
C37         C  0.47772075  0.14851272  0.61504546     0.01100
C38         C  0.48699975  0.15382608  0.66465421     0.07100
C39         C  0.49715963  0.17917093  0.66157369    -0.06000
H40         H  0.46906389  0.13034545  0.60145611     0.07800
H41         H  0.50609605  0.19030218  0.69288987     0.09000
Cu42       Cu  0.47529447  0.17187620  0.50558490     0.44200
Cu43       Cu  0.50252226  0.22471037  0.57862245     0.42000
Cu44       Cu  0.49752644  0.22686590  0.43274532     0.43900
N45         N  0.47730843  0.17193585  0.42526935    -0.34600
N46         N  0.48685831  0.19154666  0.39723807    -0.28900
C47         C  0.48787757  0.18404415  0.34651443    -0.05000
C48         C  0.47818153  0.15856018  0.34295758     0.07200
C49         C  0.47175316  0.15165442  0.39374614     0.01000
H50         H  0.49517501  0.19614133  0.31478870     0.08700
H51         H  0.46463224  0.13280712  0.40732105     0.07800
N52         N  0.50277464  0.25957880  0.48104056    -0.36100
N53         N  0.50473477  0.25892432  0.53276574    -0.28300
C54         C  0.50668038  0.28379965  0.55065065    -0.03500
C55         C  0.50577727  0.30104694  0.50841452     0.05100
C56         C  0.50332343  0.28480711  0.46500291     0.03200
H57         H  0.50785704  0.28891108  0.59170126     0.08300
H58         H  0.50178110  0.29078713  0.42448581     0.07100
N59         N  0.49646539  0.83440093  0.61692060    -0.27200
N60         N  0.48913648  0.85423647  0.58677835    -0.35100
C61         C  0.48643975  0.87603653  0.61599880     0.01100
C62         C  0.49243727  0.87002779  0.66748101     0.07100
C63         C  0.49881161  0.84333395  0.66660541    -0.06000
H64         H  0.48136501  0.89514141  0.60024452     0.07800
H65         H  0.50463165  0.83130844  0.69956706     0.09000
Cu66       Cu  0.48596143  0.85247928  0.50613177     0.44200
Cu67       Cu  0.50277603  0.79653978  0.58615544     0.42000
Cu68       Cu  0.50690811  0.79416024  0.44108930     0.43900
N69         N  0.49201508  0.85081036  0.42601154    -0.34600
N70         N  0.50101256  0.82965016  0.40162692    -0.28900
C71         C  0.50512435  0.83561614  0.35075262    -0.04700
C72         C  0.49820455  0.86183469  0.34277778     0.07200
C73         C  0.48996978  0.87070147  0.39160281     0.01000
H74         H  0.51263409  0.82188916  0.32183466     0.08700
H75         H  0.48391896  0.89047002  0.40203058     0.07800
N76         N  0.50731813  0.76117301  0.48984347    -0.36100
N77         N  0.50571225  0.76183825  0.54162117    -0.28300
C78         C  0.50513545  0.73691337  0.55969312    -0.03500
C79         C  0.50636890  0.71958295  0.51744129     0.05100
C80         C  0.50779245  0.73591502  0.47388969     0.03200
H81         H  0.50339979  0.73190749  0.60071794     0.08300
H82         H  0.50872159  0.73004444  0.43320917     0.07100
N83         N  0.00135004  0.48163529  0.07973801    -0.36600
N84         N  0.04285623  0.48369552  0.00055273    -0.57100
N85         N  0.00242865  0.48145233  0.92044442    -0.36600
N86         N  0.96092753  0.48288714  0.99824943    -0.57100
C87         C  0.02252224  0.48797886  0.10933804     0.27000
C88         C  0.97944063  0.48737666  0.10824714     0.27000
C89         C  0.02412715  0.48695686  0.89153761     0.27000
C90         C  0.98123546  0.48677660  0.89020838     0.27000
C91         C  0.05761065  0.47873171  0.04336668     0.35600
C92         C  0.05813958  0.47774625  0.95857455     0.35600
C93         C  0.94549467  0.47814135  0.04045710     0.35600
C94         C  0.94612246  0.47770925  0.95555178     0.35600
C95         C  0.01390751  0.49788461  0.15715369    -0.21800
C96         C  0.98677854  0.49740238  0.15654126    -0.21800
C97         C  0.01664841  0.49623477  0.84270919    -0.21800
C98         C  0.98956546  0.49609970  0.84185326    -0.21800
C99         C  0.08243620  0.46979793  0.02848880    -0.22900
C100        C  0.08275378  0.46914176  0.97469915    -0.22900
C101        C  0.92067340  0.47017492  0.02447022    -0.22900
C102        C  0.92108881  0.46988924  0.97061237    -0.22900
C103        C  0.04935242  0.48356505  0.09550989    -0.18200
C104        C  0.95304305  0.48246709  0.09303364    -0.18200
C105        C  0.95475644  0.48104665  0.90327745    -0.18200
C106        C  0.05036129  0.48103195  0.90596782    -0.18200
H107        H  0.02589714  0.50463626  0.18937809     0.14700
H108        H  0.97391254  0.50368577  0.18818531     0.14700
H109        H  0.02941708  0.50185268  0.81052661     0.14700
H110        H  0.97738898  0.50164652  0.80891664     0.14700
H111        H  0.09860593  0.46421291  0.05371142     0.12900
H112        H  0.09921380  0.46301793  0.95034947     0.12900
H113        H  0.90397579  0.46514180  0.04901293     0.12900
H114        H  0.90482053  0.46462219  0.94549273     0.12900
H115        H  0.00181237  0.47125480  0.04465556     0.26200
H116        H  0.00222049  0.47101016  0.95542961     0.26200
N117        N  0.18635630  0.49093457  0.61180143    -0.27200
N118        N  0.16501218  0.48145031  0.58928176    -0.35100
C119        C  0.14618184  0.47790127  0.62564571     0.01100
C120        C  0.15588857  0.48567780  0.67371454     0.07100
C121        C  0.18146563  0.49395735  0.66347029    -0.06000
H122        H  0.12645583  0.47117311  0.61714191     0.07800
H123        H  0.19543654  0.50166260  0.69136306     0.09000
Cu124      Cu  0.16075179  0.47624171  0.50965173     0.44200
Cu125      Cu  0.22066942  0.49909912  0.56950400     0.42000
Cu126      Cu  0.21391441  0.49427576  0.42578581     0.43900
N127        N  0.15742813  0.47740079  0.42918352    -0.34600
N128        N  0.17669789  0.48483813  0.39759998    -0.28900
C129        C  0.16777680  0.48477616  0.34793796    -0.05000
C130        C  0.14165580  0.47666817  0.34851765     0.07200
C131        C  0.13586108  0.47221825  0.40081441     0.01000
H132        H  0.17949274  0.49001667  0.31400594     0.08700
H133        H  0.11714088  0.46624595  0.41735939     0.07800
N134        N  0.24916807  0.50139892  0.46466948    -0.36100
N135        N  0.25174581  0.50310342  0.51612943    -0.28300
C136        C  0.27735429  0.50702984  0.52738747    -0.03500
C137        C  0.29165975  0.50793768  0.48083710     0.05100
C138        C  0.27298824  0.50426615  0.44203168     0.03200
H139        H  0.28491399  0.50899378  0.56672139     0.08300
H140        H  0.27641853  0.50315372  0.40023806     0.07100
N141        N  0.82234728  0.49353036  0.60466540    -0.27200
N142        N  0.84263200  0.48177228  0.58176029    -0.35100
C143        C  0.86235682  0.47932475  0.61638998     0.01100
C144        C  0.85423127  0.49016526  0.66367011     0.07100
C145        C  0.82872539  0.49910533  0.65464551    -0.06000
H146        H  0.88137899  0.47065166  0.60741167     0.07800
H147        H  0.81556667  0.50844090  0.68259474     0.09000
Cu148      Cu  0.84292426  0.47115267  0.50348840     0.44200
Cu149      Cu  0.78690115  0.49981389  0.56566632     0.42000
Cu150      Cu  0.78635943  0.48779152  0.42349176     0.43900
N151        N  0.84293881  0.46936173  0.42252792    -0.34600
N152        N  0.82308453  0.47692136  0.39262228    -0.28900
C153        C  0.83110954  0.47639363  0.34212026    -0.05000
C154        C  0.85711502  0.46771358  0.34044583     0.07200
C155        C  0.86382441  0.46342031  0.39215009     0.01000
H156        H  0.81901220  0.48208455  0.30919597     0.08700
H157        H  0.88297622  0.45772241  0.40692977     0.07800
N158        N  0.75267585  0.49586097  0.46837652    -0.36100
N159        N  0.75314089  0.50024612  0.51946207    -0.28300
C160        C  0.72831778  0.50381119  0.53685816    -0.03500
C161        C  0.71110758  0.50157923  0.49495872     0.05100
C162        C  0.72741989  0.49656607  0.45209148     0.03200
H163        H  0.72334054  0.50756157  0.57741989     0.08300
H164        H  0.72143137  0.49310106  0.41209387     0.07100
O165        O  0.50416408  0.54995357  0.51732506    -0.72900
O166        O  0.50364398  0.47022406  0.51479993    -0.73900
O167        O  0.54312050  0.50960750  0.50833748    -0.62500
O168        O  0.46465517  0.51042873  0.52479028    -0.70900
O169        O  0.45978480  0.51179657  0.43861736    -0.70500
O170        O  0.53944961  0.50964902  0.42189797    -0.61700
O171        O  0.49856116  0.47104760  0.42865936    -0.74200
O172        O  0.50047475  0.55029287  0.43089916    -0.73000
Cu173      Cu  0.50404020  0.51004155  0.51919719     1.04600
Cu174      Cu  0.49942075  0.51072960  0.42696210     1.04300
C175        C  0.50249315  0.56274019  0.47425349     0.93300
C176        C  0.50087414  0.45803302  0.47127790     0.92400
C177        C  0.55386327  0.50935637  0.46296210     0.84600
C178        C  0.44969825  0.51124518  0.48472519     0.90900
C179        C  0.68172384  0.50332447  0.49665615    -0.05200
C180        C  0.66842957  0.50356461  0.54522570    -0.05100
C181        C  0.64097464  0.50507006  0.54782900    -0.23300
C182        C  0.62604681  0.50633072  0.50193773     0.18900
C183        C  0.63891108  0.50618500  0.45273106     0.16100
C184        C  0.66667611  0.50467574  0.45034208    -0.18300
C185        C  0.62370722  0.50745293  0.40692067    -0.20100
C186        C  0.59608294  0.50860925  0.40995298    -0.12700
C187        C  0.58313730  0.50858155  0.45884894     0.04000
C188        C  0.59842712  0.50756533  0.50467641    -0.24800
H189        H  0.67912506  0.50232760  0.58165504     0.09000
H190        H  0.63139659  0.50511445  0.58589680     0.12700
H191        H  0.67643933  0.50466432  0.41251036     0.12600
H192        H  0.63316288  0.50741683  0.36874893     0.12300
H193        H  0.58486134  0.50942881  0.37401676     0.12900
H194        H  0.58885246  0.50755523  0.54275867     0.14800
C195        C  0.32063852  0.51111876  0.47371660    -0.05200
C196        C  0.33122281  0.51738252  0.42419251    -0.05100
C197        C  0.35848455  0.51931712  0.41657351    -0.23300
C198        C  0.37581907  0.51494630  0.45828079     0.18900
C199        C  0.36544444  0.50917751  0.50847914     0.16100
C200        C  0.33800882  0.50738226  0.51592168    -0.18300
C201        C  0.38271046  0.50491250  0.55030449    -0.20100
C202        C  0.40996689  0.50595249  0.54239562    -0.12700
C203        C  0.42062685  0.51118323  0.49245559     0.04000
C204        C  0.40331905  0.51589277  0.45052313    -0.24800
H205        H  0.31846344  0.52079262  0.39103836     0.09000
H206        H  0.36601090  0.52396051  0.37787271     0.12700
H207        H  0.33032451  0.50247650  0.55434221     0.12600
H208        H  0.37514781  0.50052657  0.58910275     0.12300
H209        H  0.42274212  0.50226108  0.57547215     0.12900
H210        H  0.41119948  0.52010566  0.41188221     0.14800
C211        C  0.06977700  0.48455975  0.13741382    -0.05200
C212        C  0.09109161  0.50205107  0.13342956    -0.05100
C213        C  0.11013393  0.50321436  0.17280080    -0.23300
C214        C  0.10794597  0.48722795  0.21737810     0.18900
C215        C  0.08653753  0.46961205  0.22176148     0.16100
C216        C  0.06782171  0.46815529  0.18153324    -0.18300
C217        C  0.08394931  0.45404476  0.26672779    -0.20100
C218        C  0.10205702  0.45625791  0.30747896    -0.12700
C219        C  0.12336755  0.47376331  0.30380471     0.04000
C220        C  0.12643483  0.48894119  0.25813028    -0.24800
H221        H  0.09288365  0.51492724  0.09981386     0.09000
H222        H  0.12632986  0.51690273  0.16876103     0.12700
H223        H  0.05149398  0.45454420  0.18474058     0.12600
H224        H  0.06769508  0.44041966  0.27073454     0.12300
H225        H  0.09939697  0.44412437  0.34192706     0.12900
H226        H  0.14264553  0.50267677  0.25501288     0.14800
C227        C  0.14094631  0.48643635  0.72370425    -0.05200
C228        C  0.14658215  0.50521407  0.76243997    -0.05100
C229        C  0.13061475  0.50741998  0.80722026    -0.23300
C230        C  0.10890784  0.49071676  0.81413063     0.18900
C231        C  0.10378363  0.47110658  0.77623531     0.16100
C232        C  0.11977326  0.46912538  0.73147253    -0.18300
C233        C  0.08235884  0.45413875  0.78301908    -0.20100
C234        C  0.06564352  0.45703421  0.82617359    -0.12700
C235        C  0.06996674  0.47697375  0.86317655     0.04000
C236        C  0.09188643  0.49357877  0.85749081    -0.24800
H237        H  0.16276363  0.51879761  0.75726666     0.09000
H238        H  0.13495120  0.52248259  0.83592916     0.12700
H239        H  0.11549384  0.45425638  0.70230925     0.12600
H240        H  0.07825987  0.43892097  0.75448263     0.12300
H241        H  0.04888447  0.44403973  0.83024346     0.12900
H242        H  0.09522032  0.50901299  0.88600491     0.14800
C243        C  0.87513161  0.46549699  0.29480259    -0.05200
C244        C  0.89516145  0.44628532  0.29470177    -0.05100
C245        C  0.91380714  0.44523699  0.25427373    -0.23300
C246        C  0.91307386  0.46372116  0.21361555     0.18900
C247        C  0.89282344  0.48298777  0.21288953     0.16100
C248        C  0.87373005  0.48351255  0.25312224    -0.18300
C249        C  0.89243244  0.50176236  0.17260734    -0.20100
C250        C  0.91200121  0.50157772  0.13375121    -0.12700
C251        C  0.93215117  0.48251977  0.13427469     0.04000
C252        C  0.93251251  0.46354093  0.17420329    -0.24800
H253        H  0.89650512  0.43211677  0.32626206     0.09000
H254        H  0.92912398  0.43030297  0.25540076     0.12700
H255        H  0.85851370  0.49857265  0.25317034     0.12600
H256        H  0.87716405  0.51673940  0.17145439     0.12300
H257        H  0.91153125  0.51637913  0.10325328     0.12900
H258        H  0.94806656  0.44881816  0.17466090     0.14800
C259        C  0.86955520  0.49142343  0.71299652    -0.05200
C260        C  0.86449289  0.51116060  0.75039973    -0.05100
C261        C  0.87950121  0.51268290  0.79622314    -0.23300
C262        C  0.89966178  0.49430292  0.80575747     0.18900
C263        C  0.90451157  0.47405457  0.76883045     0.16100
C264        C  0.88958488  0.47285338  0.72273746    -0.18300
C265        C  0.92443914  0.45547328  0.77827256    -0.20100
C266        C  0.93993663  0.45733288  0.82312264    -0.12700
C267        C  0.93583426  0.47776767  0.85936114     0.04000
C268        C  0.91537816  0.49603815  0.85094988    -0.24800
H269        H  0.84924729  0.52575278  0.74376727     0.09000
H270        H  0.87544985  0.52833153  0.82402266     0.12700
H271        H  0.89347608  0.45730080  0.69462910     0.12600
H272        H  0.92834268  0.43976077  0.75052707     0.12300
H273        H  0.95567755  0.44316739  0.82904319     0.12900
H274        H  0.91228433  0.51192905  0.87870332     0.14800
C275        C  0.50291192  0.59207199  0.47412203    -0.05200
C276        C  0.50240145  0.60589106  0.42635364    -0.05100
C277        C  0.50290391  0.63340282  0.42539519    -0.23300
C278        C  0.50389764  0.64781334  0.47220837     0.18900
C279        C  0.50429433  0.63428392  0.52051947     0.16100
C280        C  0.50383019  0.60653833  0.52123767    -0.18300
C281        C  0.50520086  0.64877599  0.56725917    -0.20100
C282        C  0.50583177  0.67633293  0.56619019    -0.12700
C283        C  0.50558033  0.69013777  0.51835752     0.04000
C284        C  0.50454335  0.67551214  0.47140100    -0.24800
H285        H  0.50169016  0.59541545  0.38943124     0.09000
H286        H  0.50255730  0.64341243  0.38793025     0.12700
H287        H  0.50417713  0.59626389  0.55842565     0.12600
H288        H  0.50549717  0.63879356  0.60475066     0.12300
H289        H  0.50666664  0.68673643  0.60310012     0.12900
H290        H  0.50418030  0.68552299  0.43401480     0.14800
C291        C  0.50029274  0.42873688  0.47006043    -0.05200
C292        C  0.49205303  0.41538181  0.42472649    -0.05100
C293        C  0.49137646  0.38785281  0.42322933    -0.23300
C294        C  0.49911839  0.37302466  0.46692145     0.18900
C295        C  0.50751524  0.38615560  0.51264681     0.16100
C296        C  0.50796206  0.41386140  0.51402490    -0.18300
C297        C  0.51533378  0.37133290  0.55625398    -0.20100
C298        C  0.51475792  0.34380747  0.55473764    -0.12700
C299        C  0.50640425  0.33040911  0.50955612     0.04000
C300        C  0.49861390  0.34532011  0.46563648    -0.24800
H301        H  0.48594470  0.42624532  0.39034519     0.09000
H302        H  0.48484785  0.37816191  0.38779841     0.12700
H303        H  0.51445462  0.42380968  0.54920996     0.12600
H304        H  0.52192033  0.38103335  0.59162588     0.12300
H305        H  0.52110615  0.33305084  0.58901958     0.12900
H306        H  0.49191335  0.33549020  0.43053422     0.14800
C307        C  0.49652403  0.08468673  0.13726472    -0.05200
C308        C  0.51490796  0.10526034  0.13658023    -0.05100
C309        C  0.51407690  0.12490978  0.17495872    -0.23300
C310        C  0.49497867  0.12412502  0.21490821     0.18900
C311        C  0.47620401  0.10360840  0.21533641     0.16100
C312        C  0.47699639  0.08415293  0.17636657    -0.18300
C313        C  0.45734025  0.10250122  0.25548601    -0.20100
C314        C  0.45762495  0.12095519  0.29593202    -0.12700
C315        C  0.47654155  0.14108013  0.29673045     0.04000
C316        C  0.49481391  0.14296954  0.25531217    -0.24800
H317        H  0.53012312  0.10586065  0.10665740     0.09000
H318        H  0.52865028  0.14041983  0.17395595     0.12700
H319        H  0.46278044  0.06827993  0.17686556     0.12600
H320        H  0.44273891  0.08700707  0.25627873     0.12300
H321        H  0.44313108  0.11929234  0.32705106     0.12900
H322        H  0.50960001  0.15829224  0.25577310     0.14800
C323        C  0.48630527  0.13551498  0.70974548    -0.05200
C324        C  0.46543713  0.11754293  0.71446939    -0.05100
C325        C  0.46508723  0.09894860  0.75468424    -0.23300
C326        C  0.48582343  0.09769107  0.79059948     0.18900
C327        C  0.50690637  0.11574958  0.78653220     0.16100
C328        C  0.50686991  0.13476196  0.74642073    -0.18300
C329        C  0.52774421  0.11427125  0.82240191    -0.20100
C330        C  0.52758185  0.09525506  0.86203643    -0.12700
C331        C  0.50667656  0.07738701  0.86624446     0.04000
C332        C  0.48586224  0.07862754  0.83040155    -0.24800
H333        H  0.44928148  0.11787508  0.68690295     0.09000
H334        H  0.44874024  0.08535119  0.75730722     0.12700
H335        H  0.52315678  0.14838293  0.74278734     0.12600
H336        H  0.54409400  0.12786191  0.81991812     0.12300
H337        H  0.54367282  0.09453693  0.88973293     0.12900
H338        H  0.46964872  0.06489757  0.83394007     0.14800
C339        C  0.50036810  0.87766737  0.29391633    -0.05200
C340        C  0.51757419  0.87002768  0.25318951    -0.05100
C341        C  0.52064741  0.88578303  0.20853628    -0.23300
C342        C  0.50634231  0.90935625  0.20342879     0.18900
C343        C  0.48843187  0.91681732  0.24345348     0.16100
C344        C  0.48567571  0.90106875  0.28836200    -0.18300
C345        C  0.47364864  0.94002024  0.23810589    -0.20100
C346        C  0.47677121  0.95587065  0.19386018    -0.12700
C347        C  0.49508763  0.94919443  0.15437456     0.04000
C348        C  0.50978001  0.92572322  0.15937416    -0.24800
H349        H  0.52919246  0.85218188  0.25634824     0.09000
H350        H  0.53437712  0.87962621  0.17818979     0.12700
H351        H  0.47198430  0.90706507  0.31889466     0.12600
H352        H  0.45969187  0.94596128  0.26822339     0.12300
H353        H  0.46507890  0.97369383  0.19069942     0.12900
H354        H  0.52406667  0.92043117  0.12937642     0.14800
C355        C  0.49228630  0.88883719  0.71225328    -0.05200
C356        C  0.47696642  0.91194138  0.70904603    -0.05100
C357        C  0.47695631  0.93044758  0.74939603    -0.23300
C358        C  0.49240041  0.92641933  0.79392957     0.18900
C359        C  0.50802622  0.90339739  0.79804079     0.16100
C360        C  0.50770180  0.88457338  0.75731470    -0.18300
C361        C  0.52380971  0.89984442  0.84261280    -0.20100
C362        C  0.52410568  0.91892063  0.88239810    -0.12700
C363        C  0.50840588  0.94172362  0.87860595     0.04000
C364        C  0.49248578  0.94517898  0.83425985    -0.24800
H365        H  0.46466049  0.91571662  0.67535536     0.09000
H366        H  0.46488108  0.94799717  0.74565062     0.12700
H367        H  0.51980466  0.86700794  0.76020223     0.12600
H368        H  0.53605511  0.88243269  0.84652353     0.12300
H369        H  0.53667296  0.91597293  0.91607938     0.12900
H370        H  0.48027476  0.96268542  0.83109311     0.14800
loop_ 
_geom_bond_atom_site_label_1 
_geom_bond_atom_site_label_2 
_geom_bond_distance 
_geom_bond_site_symmetry_2 
_ccdc_geom_bond_type 
N1            C6   1.355       .  A
N1            C5   1.353   1_545  A
N1           H33   1.038       .  S
N2            C9   1.354   1_554  A
N2           C10   1.354       .  A
N3            C8   1.355       .  A
N3            C7   1.354   1_545  A
N3           H34   1.039       .  S
N4           C11   1.349   1_554  A
N4           C12   1.349       .  A
C5           C13   1.388       .  A
C5           C21   1.419       .  A
C6           C22   1.415       .  A
C6           C14   1.385       .  A
C7           C15   1.387   1_565  A
C7           C24   1.417       .  A
C8           C23   1.416       .  A
C8           C16   1.386       .  A
C9           C21   1.418       .  A
C9           C17   1.386       .  A
C10          C24   1.417       .  A
C10          C18   1.386       .  A
C11          C19   1.386       .  A
C11          C22   1.409       .  A
C12          C20   1.386       .  A
C12          C23   1.409       .  A
C13          C14   1.377   1_565  A
C13          H25   1.082       .  S
C14          H26   1.082       .  S
C15          C16   1.375       .  A
C15          H27   1.082   1_545  S
C16          H28   1.082       .  S
C17          C18   1.376   1_556  A
C17          H29   1.082       .  S
C18          H30   1.082       .  S
C19          C20   1.373   1_556  A
C19          H31   1.082       .  S
C20          H32   1.082       .  S
C21         C363   1.496       .  S
C22         C331   1.485       .  S
C23         C307   1.487       .  S
C24         C347   1.499       .  S
N35          C39   1.351       .  A
N35          N36   1.321       .  A
N35         Cu43   2.097       .  S
N36          C37   1.340       .  A
N36         Cu42   2.052       .  S
C37          C38   1.380       .  A
C37          H40   1.082       .  S
C38          C39   1.392       .  A
C38         C323   1.481       .  S
C39          H41   1.082       .  S
Cu42         N45   2.052       .  S
Cu43         N53   2.100       .  S
Cu44         N46   2.085       .  S
Cu44         N52   2.088       .  S
N45          C49   1.339       .  A
N45          N46   1.320       .  A
N46          C47   1.350       .  A
C47          C48   1.391       .  A
C47          H50   1.082       .  S
C48          C49   1.381       .  A
C48         C315   1.479       .  S
C49          H51   1.082       .  S
N52          C56   1.346       .  A
N52          N53   1.325       .  A
N53          C54   1.348       .  A
C54          C55   1.391       .  A
C54          H57   1.081       .  S
C55          C56   1.388       .  A
C55         C299   1.493       .  S
C56          H58   1.081       .  S
N59          C63   1.353       .  A
N59          N60   1.322       .  A
N59         Cu67   2.100       .  S
N60          C61   1.341       .  A
N60         Cu66   2.067       .  S
C61          C62   1.384       .  A
C61          H64   1.082       .  S
C62          C63   1.393       .  A
C62         C355   1.489       .  S
C63          H65   1.082       .  S
Cu66         N69   2.068       .  S
Cu67         N77   2.102       .  S
Cu68         N70   2.087       .  S
Cu68         N76   2.089       .  S
N69          C73   1.344       .  A
N69          N70   1.320       .  A
N70          C71   1.349       .  A
C71          C72   1.391       .  A
C71          H74   1.082       .  S
C72          C73   1.386       .  A
C72         C339   1.488       .  S
C73          H75   1.082       .  S
N76          C80   1.346       .  A
N76          N77   1.324       .  A
N77          C78   1.349       .  A
C78          C79   1.393       .  A
C78          H81   1.081       .  S
C79          C80   1.390       .  A
C79         C283   1.497       .  S
C80          H82   1.081       .  S
N83          C88   1.355   1_455  A
N83          C87   1.356       .  A
N83         H115   1.039       .  S
N84          C91   1.351       .  A
N84          C92   1.352   1_554  A
N85          C90   1.353   1_455  A
N85          C89   1.352       .  A
N85         H116   1.039       .  S
N86          C93   1.351   1_556  A
N86          C94   1.353       .  A
C87          C95   1.387       .  A
C87         C103   1.420       .  A
C88         C104   1.419       .  A
C88          C96   1.387       .  A
C89          C97   1.387       .  A
C89         C106   1.413       .  A
C90         C105   1.413       .  A
C90          C98   1.387       .  A
C91         C103   1.414       .  A
C91          C99   1.387       .  A
C92         C106   1.411       .  A
C92         C100   1.385       .  A
C93         C101   1.388       .  A
C93         C104   1.415       .  A
C94         C102   1.385       .  A
C94         C105   1.412       .  A
C95          C96   1.376   1_455  A
C95         H107   1.082       .  S
C96         H108   1.082       .  S
C97          C98   1.374   1_455  A
C97         H109   1.082       .  S
C98         H110   1.082       .  S
C99         C100   1.373   1_554  A
C99         H111   1.082       .  S
C100        H112   1.082       .  S
C101        C102   1.375   1_554  A
C101        H113   1.082       .  S
C102        H114   1.082       .  S
C103        C211   1.494       .  S
C104        C251   1.489       .  S
C105        C267   1.489       .  S
C106        C235   1.486       .  S
N117        C121   1.349       .  A
N117        N118   1.321       .  A
N117       Cu125   2.086       .  S
N118        C119   1.341       .  A
N118       Cu124   2.062       .  S
C119        C120   1.383       .  A
C119        H122   1.082       .  S
C120        C121   1.389       .  A
C120        C227   1.481       .  S
C121        H123   1.082       .  S
Cu124       N127   2.062       .  S
Cu125       N135   2.088       .  S
Cu126       N128   2.082       .  S
Cu126       N134   2.083       .  S
N127        C131   1.342       .  A
N127        N128   1.320       .  A
N128        C129   1.348       .  A
C129        C130   1.389       .  A
C129        H132   1.082       .  S
C130        C131   1.384       .  A
C130        C219   1.482       .  S
C131        H133   1.082       .  S
N134        C138   1.345       .  A
N134        N135   1.323       .  A
N135        C136   1.347       .  A
C136        C137   1.389       .  A
C136        H139   1.081       .  S
C137        C138   1.387       .  A
C137        C195   1.489       .  S
C138        H140   1.081       .  S
N141        C145   1.348       .  A
N141        N142   1.320       .  A
N141       Cu149   2.083       .  S
N142        C143   1.344       .  A
N142       Cu148   2.069       .  S
C143        C144   1.386       .  A
C143        H146   1.082       .  S
C144        C145   1.389       .  A
C144        C259   1.485       .  S
C145        H147   1.082       .  S
Cu148       N151   2.068       .  S
Cu149       N159   2.084       .  S
Cu150       N152   2.090       .  S
Cu150       N158   2.090       .  S
N151        C155   1.342       .  A
N151        N152   1.322       .  A
N152        C153   1.350       .  A
C153        C154   1.389       .  A
C153        H156   1.082       .  S
C154        C155   1.382       .  A
C154        C243   1.480       .  S
C155        H157   1.082       .  S
N158        C162   1.349       .  A
N158        N159   1.323       .  A
N159        C160   1.344       .  A
C160        C161   1.389       .  A
C160        H163   1.081       .  S
C161        C162   1.390       .  A
C161        C179   1.493       .  S
C162        H164   1.081       .  S
O165       Cu173   2.029       .  S
O165        C175   1.280       .  A
O166       Cu173   2.027       .  S
O166        C176   1.280       .  A
O167       Cu173   1.999       .  S
O167        C177   1.277       .  A
O168       Cu173   2.001       .  S
O168        C178   1.277       .  A
O169       Cu174   2.031       .  S
O169        C178   1.281       .  A
O170       Cu174   2.034       .  S
O170        C177   1.281       .  A
O171       Cu174   2.018       .  S
O171        C176   1.279       .  A
O172       Cu174   2.014       .  S
O172        C175   1.279       .  A
Cu173      Cu174   2.367       .  S
C175        C275   1.491       .  S
C176        C291   1.490       .  S
C177        C187   1.488       .  S
C178        C203   1.486       .  S
C179        C180   1.408       .  A
C179        C184   1.412       .  A
C180        C181   1.395       .  A
C180        H189   1.081       .  S
C181        C182   1.399       .  A
C181        H190   1.084       .  S
C182        C188   1.403       .  A
C182        C183   1.412       .  A
C183        C185   1.405       .  A
C183        C184   1.411       .  A
C184        H191   1.083       .  S
C185        C186   1.403       .  A
C185        H192   1.083       .  S
C186        C187   1.407       .  A
C186        H193   1.083       .  S
C187        C188   1.408       .  A
C188        H194   1.084       .  S
C195        C196   1.408       .  A
C195        C200   1.408       .  A
C196        C197   1.399       .  A
C196        H205   1.082       .  S
C197        C198   1.401       .  A
C197        H206   1.084       .  S
C198        C204   1.408       .  A
C198        C199   1.414       .  A
C199        C201   1.401       .  A
C199        C200   1.406       .  A
C200        H207   1.083       .  S
C201        C202   1.397       .  A
C201        H208   1.084       .  S
C202        C203   1.408       .  A
C202        H209   1.083       .  S
C203        C204   1.408       .  A
C204        H210   1.084       .  S
C211        C212   1.406       .  A
C211        C216   1.405       .  A
C212        C213   1.399       .  A
C212        H221   1.083       .  S
C213        C214   1.403       .  A
C213        H222   1.084       .  S
C214        C220   1.407       .  A
C214        C215   1.415       .  A
C215        C217   1.400       .  A
C215        C216   1.404       .  A
C216        H223   1.084       .  S
C217        C218   1.396       .  A
C217        H224   1.084       .  S
C218        C219   1.406       .  A
C218        H225   1.082       .  S
C219        C220   1.407       .  A
C220        H226   1.084       .  S
C227        C228   1.405       .  A
C227        C232   1.405       .  A
C228        C229   1.401       .  A
C228        H237   1.083       .  S
C229        C230   1.404       .  A
C229        H238   1.083       .  S
C230        C236   1.407       .  A
C230        C231   1.414       .  A
C231        C233   1.401       .  A
C231        C232   1.400       .  A
C232        H239   1.084       .  S
C233        C234   1.393       .  A
C233        H240   1.084       .  S
C234        C235   1.404       .  A
C234        H241   1.083       .  S
C235        C236   1.406       .  A
C236        H242   1.084       .  S
C243        C244   1.405       .  A
C243        C248   1.406       .  A
C244        C245   1.396       .  A
C244        H253   1.083       .  S
C245        C246   1.401       .  A
C245        H254   1.084       .  S
C246        C252   1.404       .  A
C246        C247   1.415       .  A
C247        C249   1.403       .  A
C247        C248   1.408       .  A
C248        H255   1.084       .  S
C249        C250   1.399       .  A
C249        H256   1.083       .  S
C250        C251   1.404       .  A
C250        H257   1.083       .  S
C251        C252   1.404       .  A
C252        H258   1.084       .  S
C259        C260   1.406       .  A
C259        C264   1.406       .  A
C260        C261   1.401       .  A
C260        H269   1.083       .  S
C261        C262   1.404       .  A
C261        H270   1.083       .  S
C262        C268   1.409       .  A
C262        C263   1.415       .  A
C263        C265   1.401       .  A
C263        C264   1.404       .  A
C264        H271   1.084       .  S
C265        C266   1.396       .  A
C265        H272   1.084       .  S
C266        C267   1.404       .  A
C266        H273   1.083       .  S
C267        C268   1.406       .  A
C268        H274   1.084       .  S
C275        C276   1.408       .  A
C275        C280   1.410       .  A
C276        C277   1.399       .  A
C276        H285   1.083       .  S
C277        C278   1.402       .  A
C277        H286   1.084       .  S
C278        C284   1.408       .  A
C278        C279   1.412       .  A
C279        C281   1.403       .  A
C279        C280   1.410       .  A
C280        H287   1.084       .  S
C281        C282   1.401       .  A
C281        H288   1.084       .  S
C282        C283   1.409       .  A
C282        H289   1.081       .  S
C283        C284   1.411       .  A
C284        H290   1.082       .  S
C291        C292   1.408       .  A
C291        C296   1.409       .  A
C292        C293   1.400       .  A
C292        H301   1.083       .  S
C293        C294   1.403       .  A
C293        H302   1.084       .  S
C294        C300   1.409       .  A
C294        C295   1.413       .  A
C295        C297   1.402       .  A
C295        C296   1.409       .  A
C296        H303   1.084       .  S
C297        C298   1.400       .  A
C297        H304   1.084       .  S
C298        C299   1.407       .  A
C298        H305   1.082       .  S
C299        C300   1.411       .  A
C300        H306   1.083       .  S
C307        C308   1.404       .  A
C307        C312   1.402       .  A
C308        C309   1.399       .  A
C308        H317   1.083       .  S
C309        C310   1.403       .  A
C309        H318   1.083       .  S
C310        C316   1.407       .  A
C310        C311   1.415       .  A
C311        C313   1.399       .  A
C311        C312   1.402       .  A
C312        H319   1.085       .  S
C313        C314   1.394       .  A
C313        H320   1.084       .  S
C314        C315   1.406       .  A
C314        H321   1.083       .  S
C315        C316   1.405       .  A
C316        H322   1.084       .  S
C323        C324   1.406       .  A
C323        C328   1.406       .  A
C324        C325   1.396       .  A
C324        H333   1.083       .  S
C325        C326   1.400       .  A
C325        H334   1.084       .  S
C326        C332   1.404       .  A
C326        C327   1.416       .  A
C327        C329   1.404       .  A
C327        C328   1.408       .  A
C328        H335   1.084       .  S
C329        C330   1.400       .  A
C329        H336   1.083       .  S
C330        C331   1.403       .  A
C330        H337   1.083       .  S
C331        C332   1.402       .  A
C332        H338   1.084       .  S
C339        C340   1.406       .  A
C339        C344   1.408       .  A
C340        C341   1.402       .  A
C340        H349   1.082       .  S
C341        C342   1.404       .  A
C341        H350   1.083       .  S
C342        C348   1.410       .  A
C342        C343   1.413       .  A
C343        C345   1.401       .  A
C343        C344   1.405       .  A
C344        H351   1.083       .  S
C345        C346   1.396       .  A
C345        H352   1.084       .  S
C346        C347   1.407       .  A
C346        H353   1.083       .  S
C347        C348   1.409       .  A
C348        H354   1.084       .  S
C355        C356   1.407       .  A
C355        C360   1.410       .  A
C356        C357   1.394       .  A
C356        H365   1.082       .  S
C357        C358   1.399       .  A
C357        H366   1.084       .  S
C358        C364   1.403       .  A
C358        C359   1.414       .  A
C359        C361   1.406       .  A
C359        C360   1.412       .  A
C360        H367   1.083       .  S
C361        C362   1.404       .  A
C361        H368   1.083       .  S
C362        C363   1.406       .  A
C362        H369   1.083       .  S
C363        C364   1.405       .  A
C364        H370   1.085       .  S
