geometry optimzed in LAMMPS
_audit_creation_date              2020-11-30 
_audit_creation_method            'lammps2cif' 
_symmetry_space_group_name_H-M    'P1' 
_symmetry_Int_Tables_number       1 
_symmetry_cell_setting            triclinic 
loop_ 
_symmetry_equiv_pos_as_xyz 
  x,y,z 
_cell_length_a                    22.50445984 
_cell_length_b                    22.453528635160595 
_cell_length_c                    25.617817674127007 
_cell_angle_alpha                 90.12576303340133 
_cell_angle_beta                  90.00057437090561 
_cell_angle_gamma                 89.43858069454492 
loop_ 
_atom_site_label 
_atom_site_type_symbol 
_atom_site_fract_x 
_atom_site_fract_y 
_atom_site_fract_z 
_atom_site_charge 
N1          N  0.00232245  0.43640647  0.05762056    -0.35500
N2          N  0.99958608  0.43611607  0.94206511    -0.56000
N3          N  0.00698549  0.56398956  0.94255666    -0.35500
N4          N  0.00228525  0.56435128  0.05814162    -0.56000
C5          C  0.98827349  0.37908283  0.04751870     0.28100
C6          C  0.99053414  0.44686828  0.10881411     0.28100
C7          C  0.99544937  0.55443803  0.89121969     0.28100
C8          C  0.99562454  0.62217472  0.95257209     0.28100
C9          C  0.00792854  0.37733692  0.95126392     0.36700
C10         C  0.00978609  0.44459845  0.89046661     0.36700
C11         C  0.01091881  0.55534386  0.10987757     0.36700
C12         C  0.01316216  0.62251030  0.04917463     0.36700
C13         C  0.96758409  0.35267442  0.09289128    -0.20800
C14         C  0.96891452  0.39543719  0.13147545    -0.20800
C15         C  0.97703397  0.60739427  0.86835008    -0.20800
C16         C  0.97727296  0.65010640  0.90695267    -0.20800
C17         C  0.02298955  0.34829834  0.90518752    -0.21800
C18         C  0.02431040  0.39088586  0.86677449    -0.21800
C19         C  0.02709791  0.60810795  0.13387848    -0.21800
C20         C  0.02827302  0.65068894  0.09551317    -0.21800
C21         C  0.99796941  0.34876577  0.99966501    -0.17200
C22         C  0.00118667  0.50081663  0.13607453    -0.17200
C23         C  0.00511599  0.65161438  0.00076249    -0.17200
C24         C  0.00318220  0.49972389  0.86408101    -0.17200
H25         H  0.95352467  0.30707363  0.09785103     0.15700
H26         H  0.95576957  0.38920054  0.17172052     0.15700
H27         H  0.96476498  0.61464888  0.82799598     0.15700
H28         H  0.96557497  0.69660709  0.90187282     0.15700
H29         H  0.03165154  0.30119983  0.89969580     0.14000
H30         H  0.03455544  0.38307917  0.82604116     0.14000
H31         H  0.03660261  0.61537414  0.17479743     0.14000
H32         H  0.03853684  0.69724855  0.10120419     0.14000
H33         H  0.02513885  0.46424762  0.03244119     0.27300
H34         H  0.02757477  0.53442307  0.96807016     0.27300
N35         N  0.99739049  0.56438764  0.44214636    -0.35500
N36         N  0.00062443  0.56514900  0.55773700    -0.56000
N37         N  0.99397086  0.43719592  0.55765493    -0.35500
N38         N  0.99820809  0.43638087  0.44209888    -0.56000
C39         C  0.01142589  0.62171511  0.45212761     0.28100
C40         C  0.00959336  0.55374389  0.39107201     0.28100
C41         C  0.00549429  0.44701413  0.60898179     0.28100
C42         C  0.00490021  0.37883874  0.54790103     0.28100
C43         C  0.99190503  0.62380661  0.54836467     0.36700
C44         C  0.99115953  0.55694078  0.60945556     0.36700
C45         C  0.98959415  0.44521917  0.39031973     0.36700
C46         C  0.98755816  0.37817965  0.45121288     0.36700
C47         C  0.03240173  0.64798359  0.40679223    -0.20800
C48         C  0.03135835  0.60508356  0.36835109    -0.20800
C49         C  0.02335936  0.39402042  0.63210769    -0.20800
C50         C  0.02280637  0.35106011  0.59371595    -0.20800
C51         C  0.97722146  0.65307636  0.59442898    -0.21800
C52         C  0.97666044  0.61072799  0.63305680    -0.21800
C53         C  0.97358231  0.39234154  0.36644981    -0.21800
C54         C  0.97253054  0.34985700  0.40492228    -0.20800
C55         C  0.00173601  0.65211479  0.49988157    -0.17200
C56         C  0.99924369  0.49968045  0.36396123    -0.17200
C57         C  0.99574471  0.34915922  0.49970409    -0.17200
C58         C  0.99820684  0.50196309  0.63595439    -0.17200
H59         H  0.04657950  0.69354190  0.40178708     0.15700
H60         H  0.04487247  0.61114103  0.32817891     0.15700
H61         H  0.03546503  0.38688003  0.67251376     0.15700
H62         H  0.03407354  0.30449965  0.59906581     0.15700
H63         H  0.96847167  0.70018278  0.59978457     0.14000
H64         H  0.96692877  0.61874341  0.67385619     0.14000
H65         H  0.96413221  0.38493616  0.32554024     0.14000
H66         H  0.96240530  0.30325251  0.39933060     0.14000
H67         H  0.97442505  0.53663664  0.46730579     0.27300
H68         H  0.97381670  0.46678091  0.53192135     0.27300
Zn69       Zn  0.95041924  0.94798214  0.04163658     1.49700
Zn70       Zn  0.94765845  0.05104812  0.95956827     1.49400
Zn71       Zn  0.05209508  0.05151359  0.04097843     1.49100
Zn72       Zn  0.05245323  0.94842310  0.95842791     1.49500
O73         O  0.00067677  0.99984817  0.00012867    -1.83000
O74         O  0.86279184  0.96138576  0.02989716    -0.73600
O75         O  0.96147322  0.13865977  0.97214392    -0.73500
O76         O  0.03640810  0.03509430  0.11504902    -0.73000
O77         O  0.86056962  0.03500970  0.97226062    -0.73700
O78         O  0.96707789  0.96480652  0.11530687    -0.73300
O79         O  0.03595255  0.13897885  0.02900583    -0.73800
O80         O  0.13968814  0.96415389  0.96884138    -0.73200
O81         O  0.96361217  0.03445200  0.88534877    -0.74000
O82         O  0.13942374  0.03653889  0.02798399    -0.73400
O83         O  0.03384405  0.96375271  0.88485122    -0.73800
O84         O  0.03972675  0.86114127  0.97130789    -0.73700
O85         O  0.96703298  0.86089861  0.02984927    -0.73500
C86         C  0.83420663  0.99773076  0.00121665     0.78300
C87         C  0.99831413  0.16634165  0.00064648     0.78700
C88         C  0.00189755  0.99994752  0.13895068     0.77700
C89         C  0.16700439  0.00050176  0.99809499     0.78100
C90         C  0.99829295  0.99880000  0.86126861     0.79200
C91         C  0.00392340  0.83357845  0.00070842     0.78300
Zn92       Zn  0.05186813  0.05194191  0.45914056     1.49700
Zn93       Zn  0.94762918  0.05162410  0.54087402     1.49400
Zn94       Zn  0.95004768  0.94874035  0.45809129     1.49100
Zn95       Zn  0.05212970  0.94877807  0.54129461     1.49500
O96         O  0.00042566  0.00039635  0.49989283    -1.83000
O97         O  0.03544144  0.13937232  0.47106703    -0.73600
O98         O  0.86043410  0.03569455  0.52825695    -0.73500
O99         O  0.96703864  0.96512044  0.38446208    -0.73000
O100        O  0.96158432  0.13917935  0.52856736    -0.73700
O101        O  0.03663338  0.03512660  0.38496654    -0.73300
O102        O  0.86253365  0.96272331  0.46969194    -0.73800
O103        O  0.03910388  0.86152577  0.52792267    -0.73200
O104        O  0.96375190  0.03500249  0.61501284    -0.74000
O105        O  0.96596037  0.86156939  0.46981017    -0.73400
O106        O  0.03357367  0.96390561  0.61503330    -0.73800
O107        O  0.13941361  0.96454083  0.53096517    -0.73700
O108        O  0.13915302  0.03731223  0.47246026    -0.73500
C109        C  0.99809708  0.16678153  0.49978529     0.78300
C110        C  0.83401186  0.99877967  0.49882586     0.78700
C111        C  0.00209192  0.00000504  0.36093599     0.77700
C112        C  0.00290605  0.83409487  0.49868526     0.78100
C113        C  0.99825973  0.99910161  0.63886065     0.79200
C114        C  0.16673354  0.00113242  0.50207711     0.78300
N115        N  0.56368613  0.00131387  0.05812342    -0.35500
N116        N  0.56537506  0.99798557  0.94247017    -0.56000
N117        N  0.43726890  0.00449048  0.94151030    -0.35500
N118        N  0.43556546  0.00012240  0.05716582    -0.56000
C119        C  0.62184491  0.98925931  0.04906772     0.28100
C120        C  0.55320614  0.99150612  0.10959827     0.28100
C121        C  0.44766377  0.99412416  0.89007247     0.28100
C122        C  0.37913605  0.99359223  0.95052669     0.28100
C123        C  0.62406165  0.00465219  0.95190853     0.36700
C124        C  0.55747777  0.00638174  0.89052830     0.36700
C125        C  0.44352678  0.00784706  0.10919689     0.36700
C126        C  0.37705377  0.00910065  0.04766158     0.36700
C127        C  0.64881687  0.97217928  0.09551088    -0.20800
C128        C  0.60559651  0.97355900  0.13357191    -0.20800
C129        C  0.39527805  0.97723511  0.86603431    -0.20800
C130        C  0.35211256  0.97685279  0.90408231    -0.20800
C131        C  0.65360977  0.01652887  0.90555742    -0.21800
C132        C  0.61147316  0.01769777  0.86679060    -0.21800
C133        C  0.38970010  0.02131715  0.13287991    -0.21800
C134        C  0.34763894  0.02201599  0.09401134    -0.21800
C135        C  0.65215503  0.99679323  0.00096459    -0.17200
C136        C  0.49823681  0.00028796  0.13597732    -0.17200
C137        C  0.34890534  0.00170419  0.99862913    -0.17200
C138        C  0.50263602  0.00122583  0.86380944    -0.17200
H139        H  0.69504798  0.96033353  0.10150696     0.15700
H140        H  0.61213568  0.96274441  0.17433698     0.15700
H141        H  0.38876706  0.96627913  0.82527689     0.15700
H142        H  0.30590060  0.96581015  0.89808345     0.15700
H143        H  0.70075791  0.02327190  0.90010710     0.14000
H144        H  0.61974284  0.02565346  0.82578413     0.14000
H145        H  0.38145746  0.02942020  0.17392059     0.14000
H146        H  0.30060926  0.03052634  0.09938896     0.14000
H147        H  0.53477402  0.02125583  0.03178958     0.27300
H148        H  0.46627569  0.02395561  0.96781963     0.27300
N149        N  0.56354050  0.00153258  0.44198691    -0.35500
N150        N  0.56518402  0.99786674  0.55756487    -0.56000
N151        N  0.43706300  0.00462971  0.55847572    -0.35500
N152        N  0.43540175  0.00060234  0.44286801    -0.56000
C153        C  0.62161740  0.98911419  0.45106915     0.28100
C154        C  0.55302675  0.99145699  0.39052013     0.28100
C155        C  0.44744647  0.99402600  0.60984165     0.28100
C156        C  0.37892140  0.99378438  0.54938130     0.28100
C157        C  0.62386579  0.00463604  0.54820635     0.36700
C158        C  0.55724927  0.00623034  0.60953202     0.36700
C159        C  0.44339178  0.00808280  0.39084404     0.36700
C160        C  0.37683410  0.00933674  0.45232014     0.36700
C161        C  0.64848214  0.97145819  0.40468366    -0.20800
C162        C  0.60528869  0.97290658  0.36660268    -0.20800
C163        C  0.39507213  0.97699730  0.63374365    -0.20800
C164        C  0.35190738  0.97680064  0.59569345    -0.20800
C165        C  0.65337814  0.01648348  0.59462381    -0.21800
C166        C  0.61121516  0.01756563  0.63336252    -0.21800
C167        C  0.38952525  0.02115299  0.36710818    -0.21800
C168        C  0.34740903  0.02183244  0.40593667    -0.21800
C169        C  0.65197154  0.99689861  0.49913358    -0.17200
C170        C  0.49813629  0.00044469  0.36410352    -0.17200
C171        C  0.34867412  0.00206445  0.50133907    -0.17200
C172        C  0.50239419  0.00106556  0.63618011    -0.17200
H173        H  0.69461734  0.95915375  0.39875444     0.15700
H174        H  0.61174495  0.96169633  0.32586698     0.15700
H175        H  0.38857576  0.96581558  0.67441238     0.15700
H176        H  0.30570718  0.96567663  0.60159772     0.15700
H177        H  0.70051569  0.02326190  0.60013516     0.14000
H178        H  0.61944613  0.02550306  0.67440843     0.14000
H179        H  0.38127275  0.02889970  0.32604709     0.14000
H180        H  0.30033238  0.02998006  0.40049933     0.14000
H181        H  0.53476663  0.02193380  0.46826610     0.27300
H182        H  0.46609099  0.02420963  0.53231901     0.27300
C183        C  0.52472178  0.95180382  0.77731115    -0.12200
C184        C  0.50283089  0.00124109  0.80532312     0.09900
C185        C  0.48073366  0.05057921  0.77748527    -0.12200
C186        C  0.48061077  0.05051091  0.72266509    -0.12200
C187        C  0.50257961  0.00110223  0.69466147     0.09900
C188        C  0.52459878  0.95173566  0.72250238    -0.12200
H189        H  0.54169612  0.91320771  0.79797373     0.13900
H190        H  0.46372740  0.08917429  0.79828266     0.13900
H191        H  0.46354466  0.08906788  0.70199815     0.13900
H192        H  0.54151217  0.91310260  0.70170612     0.13900
C193        C  0.47296650  0.95278426  0.22253318    -0.12200
C194        C  0.49793916  0.00024276  0.19459626     0.09900
C195        C  0.52281142  0.04773302  0.22269109    -0.12200
C196        C  0.52281007  0.04776137  0.27754089    -0.12200
C197        C  0.49792555  0.00030340  0.30548725     0.09900
C198        C  0.47296631  0.95281229  0.27740522    -0.12200
H199        H  0.45367268  0.91562626  0.20177056     0.13900
H200        H  0.54211162  0.08487564  0.20205403     0.13900
H201        H  0.54210155  0.08493041  0.29829096     0.13900
H202        H  0.45366485  0.91568147  0.29805692     0.13900
C203        C  0.23054596  0.00142596  0.50263155    -0.12200
C204        C  0.28417205  0.00169227  0.50230040    -0.13700
C205        C  0.71652346  0.99669042  0.49817025    -0.12200
C206        C  0.77016613  0.99763471  0.49840240    -0.13700
C207        C  0.23080427  0.00076625  0.99753696    -0.12200
C208        C  0.28442101  0.00113018  0.99773553    -0.13700
C209        C  0.71670913  0.99611491  0.00187081    -0.12200
C210        C  0.77036028  0.99665290  0.00166472    -0.13700
C211        C  0.03775751  0.96178078  0.77698461    -0.12200
C212        C  0.99749895  0.99815282  0.80444787     0.09900
C213        C  0.95685734  0.03417793  0.77722580    -0.12200
C214        C  0.95686410  0.03426344  0.72313372    -0.12200
C215        C  0.99750630  0.99831823  0.69568689     0.09900
C216        C  0.03776024  0.96186218  0.72292914    -0.12200
H217        H  0.06955047  0.93355371  0.79715899     0.13900
H218        H  0.92518822  0.06243147  0.79762355     0.13900
H219        H  0.92519136  0.06257388  0.70290974     0.13900
H220        H  0.06955332  0.93369784  0.70258141     0.13900
C221        C  0.97626641  0.95268582  0.22284742    -0.12200
C222        C  0.00223766  0.99985333  0.19565034     0.09900
C223        C  0.02846010  0.04690839  0.22296974    -0.12200
C224        C  0.02860622  0.04686409  0.27704347    -0.12200
C225        C  0.00250288  0.99978157  0.30423248     0.09900
C226        C  0.97640735  0.95264519  0.27690316    -0.12200
H227        H  0.95620678  0.91568194  0.20241469     0.13900
H228        H  0.04835334  0.08395627  0.20261914     0.13900
H229        H  0.04857428  0.08389684  0.29750027     0.13900
H230        H  0.95642262  0.91562991  0.29723477     0.13900
C231        C  0.00337292  0.77026725  0.49863163    -0.12200
C232        C  0.00299163  0.71660423  0.49912595    -0.13700
C233        C  0.99639891  0.28450558  0.49981863    -0.12200
C234        C  0.99715807  0.23075128  0.49976321    -0.13700
C235        C  0.95787794  0.46954230  0.77782451    -0.12200
C236        C  0.00217127  0.50013876  0.80545407     0.09900
C237        C  0.04500517  0.53174574  0.77701291    -0.12200
C238        C  0.04368112  0.53252267  0.72220024    -0.12200
C239        C  0.99940217  0.50182067  0.69458586     0.09900
C240        C  0.95653337  0.47034777  0.72305140    -0.12200
H241        H  0.92415263  0.44518210  0.79877706     0.13900
H242        H  0.07958903  0.55568737  0.79734115     0.13900
H243        H  0.07738177  0.55689764  0.70122681     0.13900
H244        H  0.92190618  0.44644492  0.70274851     0.13900
C245        C  0.04288495  0.46708144  0.27744471    -0.12200
C246        C  0.99994065  0.50003330  0.30540668     0.09900
C247        C  0.95745430  0.53332653  0.27738062    -0.12200
C248        C  0.95768714  0.53342086  0.22259647    -0.12200
C249        C  0.00056057  0.50039058  0.19462794     0.09900
C250        C  0.04312289  0.46718242  0.22264736    -0.12200
H251        H  0.07627219  0.44132919  0.29814053     0.13900
H252        H  0.92389229  0.55901467  0.29802105     0.13900
H253        H  0.92433851  0.55923321  0.20190903     0.13900
H254        H  0.07672556  0.44155891  0.20199787     0.13900
C255        C  0.00517465  0.71611714  0.00069598    -0.12200
C256        C  0.00490634  0.76977640  0.00078749    -0.13700
C257        C  0.99751722  0.23034292  0.00065506    -0.12200
C258        C  0.99727082  0.28411273  0.00030063    -0.13700
loop_ 
_geom_bond_atom_site_label_1 
_geom_bond_atom_site_label_2 
_geom_bond_distance 
_geom_bond_site_symmetry_2 
_ccdc_geom_bond_type 
N1            C6   1.358   1_455  A
N1            C5   1.353   1_455  A
N1           H33   1.039       .  S
N2            C9   1.352   1_655  A
N2           C10   1.356   1_655  A
N3            C8   1.353   1_455  A
N3            C7   1.358   1_455  A
N3           H34   1.039       .  S
N4           C11   1.355       .  A
N4           C12   1.351       .  A
C5           C13   1.388       .  A
C5           C21   1.417   1_554  A
C6           C22   1.419   1_655  A
C6           C14   1.386       .  A
C7           C15   1.386       .  A
C7           C24   1.419   1_655  A
C8           C23   1.416   1_656  A
C8           C16   1.388       .  A
C9           C21   1.416   1_455  A
C9           C17   1.388       .  A
C10          C24   1.418       .  A
C10          C18   1.385       .  A
C11          C19   1.385       .  A
C11          C22   1.416       .  A
C12          C20   1.388       .  A
C12          C23   1.414       .  A
C13          C14   1.377       .  A
C13          H25   1.082       .  S
C14          H26   1.082       .  S
C15          C16   1.376       .  A
C15          H27   1.082       .  S
C16          H28   1.082       .  S
C17          C18   1.374       .  A
C17          H29   1.082       .  S
C18          H30   1.082       .  S
C19          C20   1.373       .  A
C19          H31   1.082       .  S
C20          H32   1.082       .  S
C21         C258   1.452   1_556  S
C22         C249   1.500       .  S
C23         C255   1.448       .  S
C24         C236   1.502       .  S
N35          C40   1.357   1_655  A
N35          C39   1.352   1_655  A
N35          H67   1.039       .  S
N36          C43   1.352   1_455  A
N36          C44   1.355   1_455  A
N37          C42   1.354   1_655  A
N37          C41   1.358   1_655  A
N37          H68   1.038       .  S
N38          C45   1.355       .  A
N38          C46   1.352       .  A
C39          C47   1.389       .  A
C39          C55   1.415       .  A
C40          C56   1.418   1_455  A
C40          C48   1.386       .  A
C41          C49   1.386       .  A
C41          C58   1.421   1_455  A
C42          C57   1.418   1_455  A
C42          C50   1.388       .  A
C43          C55   1.415   1_655  A
C43          C51   1.388       .  A
C44          C58   1.418       .  A
C44          C52   1.386       .  A
C45          C53   1.385       .  A
C45          C56   1.417       .  A
C46          C54   1.388       .  A
C46          C57   1.415       .  A
C47          C48   1.376       .  A
C47          H59   1.082       .  S
C48          H60   1.082       .  S
C49          C50   1.376       .  A
C49          H61   1.082       .  S
C50          H62   1.082       .  S
C51          C52   1.374       .  A
C51          H63   1.082       .  S
C52          H64   1.082       .  S
C53          C54   1.373       .  A
C53          H65   1.082       .  S
C54          H66   1.082       .  S
C55         C232   1.449       .  S
C56         C246   1.500       .  S
C57         C233   1.452       .  S
C58         C239   1.502       .  S
Zn69         O73   1.949   1_655  S
Zn69         O74   2.015       .  S
Zn69         O78   1.961       .  S
Zn69         O85   2.009       .  S
Zn70         O73   1.950   1_646  S
Zn70         O75   2.020       .  S
Zn70         O77   2.023       .  S
Zn70         O81   1.969       .  S
Zn71         O73   1.950   1_545  S
Zn71         O76   1.966       .  S
Zn71         O79   2.018       .  S
Zn71         O82   2.018       .  S
Zn72         O73   1.949   1_556  S
Zn72         O80   2.016       .  S
Zn72         O83   1.961       .  S
Zn72         O84   2.011       .  S
O74          C86   1.270       .  A
O75          C87   1.271   1_556  A
O76          C88   1.271   1_545  A
O77          C86   1.271   1_546  A
O78          C88   1.270   1_655  A
O79          C87   1.271   1_455  A
O80          C89   1.270   1_565  A
O81          C90   1.271   1_545  A
O82          C89   1.270   1_554  A
O83          C90   1.270   1_455  A
O84          C91   1.269   1_556  A
O85          C91   1.269   1_655  A
C86         C210   1.437       .  S
C87         C257   1.437       .  S
C88         C222   1.453       .  S
C89         C207   1.436       .  S
C90         C212   1.456       .  S
C91         C256   1.433       .  S
Zn92         O96   1.950       .  S
Zn92         O97   2.017       .  S
Zn92        O101   1.967       .  S
Zn92        O108   2.018       .  S
Zn93         O96   1.951   1_655  S
Zn93         O98   2.024       .  S
Zn93        O100   2.019       .  S
Zn93        O104   1.969       .  S
Zn94         O96   1.949   1_665  S
Zn94         O99   1.961       .  S
Zn94        O102   2.013       .  S
Zn94        O105   2.010       .  S
Zn95         O96   1.950   1_565  S
Zn95        O103   2.012       .  S
Zn95        O106   1.963       .  S
Zn95        O107   2.017       .  S
O97         C109   1.271   1_455  A
O98         C110   1.271   1_545  A
O99         C111   1.270   1_665  A
O100        C109   1.271       .  A
O101        C111   1.271       .  A
O102        C110   1.270       .  A
O103        C112   1.270       .  A
O104        C113   1.271   1_545  A
O105        C112   1.269   1_655  A
O106        C113   1.271   1_455  A
O107        C114   1.270   1_565  A
O108        C114   1.270       .  A
C109        C234   1.436       .  S
C110        C206   1.437       .  S
C111        C225   1.453   1_545  S
C112        C231   1.433       .  S
C113        C215   1.456       .  S
C114        C203   1.436       .  S
N115        C120   1.358   1_545  A
N115        C119   1.354   1_545  A
N115        H147   1.037       .  S
N116        C123   1.352   1_565  A
N116        C124   1.356   1_565  A
N117        C122   1.353   1_545  A
N117        C121   1.358   1_545  A
N117        H148   1.037       .  S
N118        C125   1.356       .  A
N118        C126   1.352       .  A
C119        C127   1.389       .  A
C119        C135   1.420       .  A
C120        C136   1.421   1_565  A
C120        C128   1.386       .  A
C121        C129   1.386       .  A
C121        C138   1.419   1_565  A
C122        C137   1.418   1_565  A
C122        C130   1.389       .  A
C123        C135   1.417   1_546  A
C123        C131   1.389       .  A
C124        C138   1.417       .  A
C124        C132   1.385       .  A
C125        C133   1.385       .  A
C125        C136   1.418       .  A
C126        C134   1.388       .  A
C126        C137   1.417   1_554  A
C127        C128   1.377       .  A
C127        H139   1.082       .  S
C128        H140   1.082       .  S
C129        C130   1.376       .  A
C129        H141   1.082       .  S
C130        H142   1.082       .  S
C131        C132   1.373       .  A
C131        H143   1.082       .  S
C132        H144   1.082       .  S
C133        C134   1.374       .  A
C133        H145   1.082       .  S
C134        H146   1.082       .  S
C135        C209   1.453       .  S
C136        C194   1.502       .  S
C137        C208   1.452       .  S
C138        C184   1.498       .  S
N149        C154   1.358   1_545  A
N149        C153   1.354   1_545  A
N149        H181   1.037       .  S
N150        C157   1.352   1_565  A
N150        C158   1.356   1_565  A
N151        C156   1.353   1_545  A
N151        C155   1.358   1_545  A
N151        H182   1.037       .  S
N152        C159   1.356       .  A
N152        C160   1.352       .  A
C153        C161   1.389       .  A
C153        C169   1.419       .  A
C154        C170   1.421   1_565  A
C154        C162   1.386       .  A
C155        C163   1.386       .  A
C155        C172   1.419   1_565  A
C156        C171   1.418   1_565  A
C156        C164   1.389       .  A
C157        C169   1.417   1_545  A
C157        C165   1.388       .  A
C158        C172   1.417       .  A
C158        C166   1.385       .  A
C159        C167   1.385       .  A
C159        C170   1.418       .  A
C160        C168   1.388       .  A
C160        C171   1.417       .  A
C161        C162   1.377       .  A
C161        H173   1.082       .  S
C162        H174   1.082       .  S
C163        C164   1.376       .  A
C163        H175   1.082       .  S
C164        H176   1.082       .  S
C165        C166   1.373       .  A
C165        H177   1.082       .  S
C166        H178   1.082       .  S
C167        C168   1.374       .  A
C167        H179   1.082       .  S
C168        H180   1.082       .  S
C169        C205   1.453       .  S
C170        C197   1.502       .  S
C171        C204   1.452       .  S
C172        C187   1.498       .  S
C183        C184   1.406   1_565  A
C183        C188   1.404       .  A
C183        H189   1.083       .  S
C184        C185   1.406       .  A
C185        C186   1.404       .  A
C185        H190   1.083       .  S
C186        C187   1.406       .  A
C186        H191   1.083       .  S
C187        C188   1.406   1_545  A
C188        H192   1.083       .  S
C193        C194   1.407   1_565  A
C193        C198   1.406       .  A
C193        H199   1.083       .  S
C194        C195   1.406       .  A
C195        C196   1.405       .  A
C195        H200   1.083       .  S
C196        C197   1.406       .  A
C196        H201   1.083       .  S
C197        C198   1.407   1_545  A
C198        H202   1.083       .  S
C203        C204   1.207       .  T
C205        C206   1.208       .  T
C207        C208   1.207       .  T
C209        C210   1.208       .  T
C211        C212   1.402   1_455  A
C211        C216   1.385       .  A
C211        H217   1.083       .  S
C212        C213   1.402   1_565  A
C213        C214   1.386       .  A
C213        H218   1.083       .  S
C214        C215   1.402   1_545  A
C214        H219   1.083       .  S
C215        C216   1.402   1_655  A
C216        H220   1.083       .  S
C221        C222   1.401   1_655  A
C221        C226   1.385       .  A
C221        H227   1.083       .  S
C222        C223   1.401   1_565  A
C223        C224   1.385       .  A
C223        H228   1.083       .  S
C224        C225   1.401   1_545  A
C224        H229   1.083       .  S
C225        C226   1.401   1_455  A
C226        H230   1.083       .  S
C231        C232   1.205       .  T
C233        C234   1.207       .  T
C235        C236   1.406   1_655  A
C235        C240   1.404       .  A
C235        H241   1.083       .  S
C236        C237   1.407       .  A
C237        C238   1.405       .  A
C237        H242   1.083       .  S
C238        C239   1.407   1_455  A
C238        H243   1.083       .  S
C239        C240   1.406       .  A
C240        H244   1.083       .  S
C245        C246   1.406   1_455  A
C245        C250   1.404       .  A
C245        H251   1.083       .  S
C246        C247   1.406       .  A
C247        C248   1.403       .  A
C247        H252   1.083       .  S
C248        C249   1.406   1_655  A
C248        H253   1.083       .  S
C249        C250   1.406       .  A
C250        H254   1.083       .  S
C255        C256   1.205       .  T
C257        C258   1.207       .  T
