geometry optimzed in LAMMPS
_audit_creation_date              2020-11-30 
_audit_creation_method            'lammps2cif' 
_symmetry_space_group_name_H-M    'P1' 
_symmetry_Int_Tables_number       1 
_symmetry_cell_setting            triclinic 
loop_ 
_symmetry_equiv_pos_as_xyz 
  x,y,z 
_cell_length_a                    27.86577267 
_cell_length_b                    27.865231029685752 
_cell_length_c                    27.542666963235312 
_cell_angle_alpha                 91.15216427328882 
_cell_angle_beta                  88.84158035104363 
_cell_angle_gamma                 91.48139903479596 
loop_ 
_atom_site_label 
_atom_site_type_symbol 
_atom_site_fract_x 
_atom_site_fract_y 
_atom_site_fract_z 
_atom_site_charge 
N1          N  0.99955812  0.44628094  0.05450578    -0.34500
N2          N  0.00121819  0.44739803  0.94702651    -0.55000
N3          N  0.99882287  0.55090618  0.95079768    -0.34500
N4          N  0.00210530  0.54997537  0.05817360    -0.55000
C5          C  0.00847827  0.39968796  0.04384966     0.29100
C6          C  0.00802497  0.45384566  0.10247901     0.29100
C7          C  0.00712641  0.54372044  0.90245471     0.29100
C8          C  0.00782747  0.59796368  0.96104273     0.29100
C9          C  0.99568312  0.39961898  0.95373739     0.37700
C10         C  0.99512098  0.45479458  0.89906842     0.37700
C11         C  0.99605585  0.54216199  0.10637724     0.37700
C12         C  0.99568387  0.59735781  0.05168821     0.37700
C13         C  0.02221059  0.37721387  0.08575058    -0.19800
C14         C  0.02187015  0.41129200  0.12263113    -0.19800
C15         C  0.02103212  0.58694563  0.88171441    -0.19800
C16         C  0.02149536  0.62108055  0.91856165    -0.19800
C17         C  0.98652255  0.37649065  0.90965218    -0.20800
C18         C  0.98617535  0.41138681  0.87510456    -0.20800
C19         C  0.98645958  0.58495175  0.13070411    -0.20800
C20         C  0.98618647  0.61984719  0.09614852    -0.20800
C21         C  0.00199555  0.37606841  0.99821982    -0.16200
C22         C  0.00160998  0.49747160  0.12901515    -0.16200
C23         C  0.00126077  0.62130446  0.00689988    -0.16200
C24         C  0.00061367  0.49974725  0.87618757    -0.16200
H25         H  0.03123351  0.33994396  0.08952936     0.16800
H26         H  0.03065818  0.40530637  0.16009089     0.16800
H27         H  0.02974673  0.59334101  0.84388224     0.16800
H28         H  0.03054117  0.65880061  0.91439945     0.16800
H29         H  0.98127225  0.33833259  0.90291498     0.15000
H30         H  0.98060845  0.40538519  0.83665756     0.15000
H31         H  0.98063499  0.59054446  0.16935434     0.15000
H32         H  0.98017290  0.65760585  0.10309113     0.15000
H33         H  0.98365424  0.46990202  0.03146468     0.28300
H34         H  0.98287300  0.52656341  0.97453851     0.28300
N35         N  0.00594902  0.44771602  0.55620634    -0.34500
N36         N  0.00167865  0.44526517  0.44858469    -0.55000
N37         N  0.00594583  0.54926459  0.44870807    -0.34500
N38         N  0.00427719  0.55156090  0.55649641    -0.55000
C39         C  0.99898315  0.40004629  0.54790475     0.29100
C40         C  0.99999791  0.45617844  0.60466743     0.29100
C41         C  0.99803820  0.54039617  0.40080592     0.29100
C42         C  0.99867234  0.59652133  0.45761611     0.29100
C43         C  0.00567635  0.39776628  0.45640299     0.37700
C44         C  0.00531291  0.45117131  0.39987558     0.37700
C45         C  0.00876259  0.54574551  0.60496008     0.37700
C46         C  0.00880607  0.59920791  0.54840177     0.37700
C47         C  0.98935327  0.37775408  0.59183149    -0.19800
C48         C  0.98996407  0.41304537  0.62748193    -0.19800
C49         C  0.98655965  0.58284394  0.37888534    -0.19800
C50         C  0.98690202  0.61811332  0.41457303    -0.19800
C51         C  0.01090951  0.37330047  0.41227249    -0.20800
C52         C  0.01065642  0.40703589  0.37659808    -0.20800
C53         C  0.01561365  0.59006141  0.62782914    -0.20800
C54         C  0.01569013  0.62382565  0.59213543    -0.20800
C55         C  0.00287289  0.37554006  0.50233444    -0.16200
C56         C  0.00461685  0.50134342  0.62923814    -0.16200
C57         C  0.00397505  0.62136614  0.50284516    -0.16200
C58         C  0.00200005  0.49549311  0.37588215    -0.16200
H59         H  0.98256486  0.33987468  0.59772034     0.16800
H60         H  0.98372679  0.40745690  0.66589296     0.16800
H61         H  0.97854447  0.58793578  0.34107504     0.16800
H62         H  0.97929311  0.65552052  0.40929777     0.16800
H63         H  0.01436955  0.33502520  0.40629693     0.15000
H64         H  0.01387831  0.39981719  0.33792568     0.15000
H65         H  0.01975977  0.59738871  0.66627747     0.15000
H66         H  0.01980336  0.66223715  0.59788189     0.15000
H67         H  0.01842382  0.47201275  0.53070229     0.28300
H68         H  0.01999720  0.52574415  0.47299059     0.28300
O69         O  0.97864090  0.02136916  0.89588283    -0.76400
C70         C  0.86952914  0.99851615  0.00423363     0.84700
O71         O  0.03585934  0.11607017  0.02763482    -0.77500
O72         O  0.97523531  0.97660779  0.11551456    -0.79000
O73         O  0.03283160  0.88368938  0.98054553    -0.78800
O74         O  0.03448848  0.96484784  0.89484515    -0.77400
Zn75       Zn  0.96464253  0.03883301  0.96431574     1.55700
O76         O  0.97254409  0.88586363  0.03486230    -0.78800
Cd77       Cd  0.04737961  0.95538604  0.96629890     1.59700
Cd78       Cd  0.04782656  0.04462451  0.04126726     1.59600
O79         O  0.11987544  0.96906357  0.97797066    -0.78800
O80         O  0.00477858  0.99989917  0.00373814    -1.89300
Cd81       Cd  0.96140362  0.95889025  0.04504295     1.59900
O82         O  0.12024347  0.03191159  0.02931494    -0.78700
O83         O  0.88951158  0.97044851  0.03305247    -0.77400
C84         C  0.00625782  0.13522147  0.99982274     0.85200
C85         C  0.00608119  0.99218173  0.87373642     0.84800
O86         O  0.89371715  0.02626969  0.97639234    -0.76300
C87         C  0.00214896  0.86271608  0.00818638     0.85600
O88         O  0.97743827  0.11024112  0.97378767    -0.76400
C89         C  0.14213091  0.00054083  0.00368063     0.85800
C90         C  0.00417894  0.00644572  0.13567024     0.86100
O91         O  0.03315328  0.03408108  0.11271981    -0.78900
O92         O  0.98146099  0.02947412  0.39711884    -0.76400
C93         C  0.86885671  0.99873483  0.50110008     0.84700
O94         O  0.03520239  0.11429857  0.53488368    -0.77500
O95         O  0.97146974  0.97035446  0.61310752    -0.79000
O96         O  0.03207771  0.88484030  0.47425519    -0.78800
O97         O  0.03699581  0.97270385  0.39328526    -0.77400
Zn98       Zn  0.96487809  0.04109386  0.46601174     1.55700
O99         O  0.97151447  0.88451796  0.52839004    -0.78800
Cd100      Cd  0.04709861  0.95741408  0.46424222     1.59700
Cd101      Cd  0.04612336  0.04202288  0.54501336     1.59600
O102        O  0.11916899  0.97024043  0.47834429    -0.78800
O103        O  0.00401477  0.99976992  0.50372956    -1.89300
Cd104      Cd  0.95959266  0.95681589  0.54161789     1.59900
O105        O  0.11855198  0.03007925  0.53327284    -0.78700
O106        O  0.88810852  0.96907784  0.52876842    -0.77400
C107        C  0.00632536  0.13496945  0.50744734     0.85200
C108        C  0.00985988  0.00231933  0.37359830     0.84800
O109        O  0.89369155  0.02786193  0.47530682    -0.76300
C110        C  0.00143190  0.86261378  0.50099177     0.85600
O111        O  0.97766217  0.11148213  0.48001088    -0.76400
C112        C  0.14087949  0.00030604  0.50610437     0.85800
C113        C  0.00030507  0.99825341  0.63587031     0.86100
O114        O  0.03014247  0.02703340  0.61551800    -0.78900
N115        N  0.55721451  0.99649376  0.05415731    -0.34500
N116        N  0.55857754  0.99949123  0.94692550    -0.55000
N117        N  0.45500619  0.99778821  0.94845850    -0.34500
N118        N  0.45379937  0.99887255  0.05573486    -0.55000
C119        C  0.60426759  0.00628573  0.04472235     0.29100
C120        C  0.54892482  0.00578742  0.10213829     0.29100
C121        C  0.46386620  0.00744341  0.90090498     0.29100
C122        C  0.40839155  0.00744101  0.95832067     0.29100
C123        C  0.60559590  0.99219221  0.95450488     0.37700
C124        C  0.55169827  0.99326294  0.89860629     0.37700
C125        C  0.46025360  0.99263832  0.10382120     0.37700
C126        C  0.40620225  0.99316120  0.04804803     0.37700
C127        C  0.62622714  0.02164512  0.08730505    -0.19800
C128        C  0.59136963  0.02128891  0.12345448    -0.19800
C129        C  0.42219709  0.02301064  0.88029502    -0.19800
C130        C  0.38727741  0.02300208  0.91640577    -0.19800
C131        C  0.62881788  0.98169470  0.91065622    -0.20800
C132        C  0.59471434  0.98244472  0.87529344    -0.20800
C133        C  0.41644160  0.98342093  0.12690131    -0.20800
C134        C  0.38224289  0.98372949  0.09164030    -0.20800
C135        C  0.62862288  0.99869788  0.99962938    -0.16200
C136        C  0.50466030  0.99857418  0.12758782    -0.16200
C137        C  0.38357367  0.99996984  0.00316731    -0.16200
C138        C  0.50777083  0.00024887  0.87505206    -0.16200
H139        H  0.66366053  0.03164942  0.09200391     0.16800
H140        H  0.59676737  0.03108660  0.16121395     0.16800
H141        H  0.41731173  0.03302158  0.84298629     0.16800
H142        H  0.35035169  0.03300111  0.91212325     0.16800
H143        H  0.66658284  0.97500597  0.90462565     0.15000
H144        H  0.60100287  0.97632241  0.83678524     0.15000
H145        H  0.40970548  0.97782835  0.16523929     0.15000
H146        H  0.34397949  0.97843536  0.09761387     0.15000
H147        H  0.53370277  0.97929906  0.03034738     0.28300
H148        H  0.47766541  0.98053577  0.97150624     0.28300
N149        N  0.55716309  0.00482789  0.55341965    -0.34500
N150        N  0.55695883  0.99936904  0.44562863    -0.55000
N151        N  0.45286298  0.99386544  0.44867547    -0.34500
N152        N  0.45313913  0.99902659  0.55656109    -0.55000
C153        C  0.60482523  0.00097063  0.54398338     0.29100
C154        C  0.55006932  0.00113953  0.60222336     0.29100
C155        C  0.46019639  0.99888405  0.40004625     0.29100
C156        C  0.40543838  0.99961881  0.45825496     0.29100
C157        C  0.60493878  0.00057130  0.45214291     0.37700
C158        C  0.55003467  0.99702751  0.39707213     0.37700
C159        C  0.46009225  0.00085332  0.60515420     0.37700
C160        C  0.40516134  0.99787858  0.55001052     0.37700
C161        C  0.62840621  0.99612814  0.58750964    -0.19800
C162        C  0.59404108  0.99623707  0.62402191    -0.19800
C163        C  0.41660894  0.00653736  0.37845571    -0.19800
C164        C  0.38223569  0.00703068  0.41496621    -0.19800
C165        C  0.62862954  0.99912544  0.40731027    -0.20800
C166        C  0.59396285  0.99681885  0.37257227    -0.20800
C167        C  0.41615845  0.00063280  0.62962857    -0.20800
C168        C  0.38148477  0.99871741  0.59486177    -0.17200
C169        C  0.62815878  0.00142809  0.49756659    -0.16200
C170        C  0.50531732  0.00170767  0.62801137    -0.16200
C171        C  0.38196850  0.99841778  0.50459083    -0.16200
C172        C  0.50487548  0.99715379  0.37426519    -0.16200
H173        H  0.66651661  0.99225284  0.59256649     0.16800
H174        H  0.60075728  0.99245472  0.66230466     0.16800
H175        H  0.41020959  0.01196603  0.34034943     0.16800
H176        H  0.34439905  0.01286160  0.41010441     0.16800
H177        H  0.66698537  0.99940370  0.40025116     0.15000
H178        H  0.60045065  0.99551816  0.33369465     0.15000
H179        H  0.40967609  0.00175708  0.66850721     0.15000
H180        H  0.34313253  0.99856447  0.60192252     0.15000
H181        H  0.53172000  0.01256121  0.52814204     0.28300
H182        H  0.47782876  0.98366574  0.47352956     0.28300
C183        C  0.50777674  0.00110918  0.82173437    -0.16400
C184        C  0.50737938  0.00144557  0.77753000     0.07700
C185        C  0.50661951  0.00155676  0.72559011     0.09500
C186        C  0.50593671  0.00158543  0.68138519    -0.17200
C187        C  0.50470963  0.99881008  0.18083632    -0.16400
C188        C  0.50464743  0.99866113  0.22499263     0.07700
C189        C  0.50447315  0.99826655  0.27684544     0.09500
C190        C  0.50444523  0.99780994  0.32099675    -0.17200
C191        C  0.32983272  0.99978746  0.50560691    -0.16400
C192        C  0.28652068  0.00054428  0.50629194     0.07700
C193        C  0.23578291  0.00086213  0.50673266     0.09500
C194        C  0.19246448  0.00071652  0.50668001    -0.17200
C195        C  0.81742460  0.99939251  0.49897473    -0.16400
C196        C  0.77420655  0.99990069  0.49758207     0.07700
C197        C  0.72356519  0.00046403  0.49662859     0.09500
C198        C  0.68028293  0.00092090  0.49660589    -0.17200
C199        C  0.33138180  0.00053975  0.00329329    -0.16400
C200        C  0.28800498  0.00064758  0.00351662     0.07700
C201        C  0.23717758  0.00063553  0.00374886     0.09500
C202        C  0.19380904  0.00062649  0.00378412    -0.17200
C203        C  0.81799845  0.99874244  0.00291109    -0.16400
C204        C  0.77473212  0.99876074  0.00165560     0.07700
C205        C  0.72404218  0.99873138  0.00037403     0.09500
C206        C  0.68074094  0.99874828  0.99969539    -0.17200
C207        C  0.99981726  0.99638107  0.68681588    -0.16400
C208        C  0.00072617  0.99361750  0.72976473     0.07700
C209        C  0.00289373  0.99079298  0.77974297     0.09500
C210        C  0.00481792  0.99024602  0.82276772    -0.17200
C211        C  0.01085934  0.00516707  0.32270833    -0.16400
C212        C  0.00965627  0.00758346  0.27974137     0.07700
C213        C  0.00688215  0.00900541  0.22970984     0.09500
C214        C  0.00484062  0.00853863  0.18666574    -0.17200
C215        C  0.00291764  0.67353503  0.50253214    -0.16400
C216        C  0.00199393  0.71685003  0.50188621     0.07700
C217        C  0.00114819  0.76760086  0.50104778     0.09500
C218        C  0.00092504  0.81094042  0.50064929    -0.17200
C219        C  0.00347744  0.32347320  0.50292172    -0.16400
C220        C  0.00442375  0.28025864  0.50414002     0.07700
C221        C  0.00553253  0.22969003  0.50590661     0.09500
C222        C  0.00614744  0.18647549  0.50709916    -0.17200
C223        C  0.00126158  0.50069529  0.82289420    -0.16400
C224        C  0.00192153  0.50136556  0.77870825     0.07700
C225        C  0.00288883  0.50194949  0.72679386     0.09500
C226        C  0.00375447  0.50206053  0.68258967    -0.17200
C227        C  0.00145901  0.49491459  0.32256056    -0.16400
C228        C  0.00145967  0.49499901  0.27836678     0.07700
C229        C  0.00167741  0.49560972  0.22646224     0.09500
C230        C  0.00179726  0.49640369  0.18228830    -0.17200
C231        C  0.00103683  0.67351004  0.00804150    -0.16400
C232        C  0.00070198  0.71687778  0.00869047     0.07700
C233        C  0.00056429  0.76769205  0.00913471     0.09500
C234        C  0.00093239  0.81105980  0.00910559    -0.17200
C235        C  0.00520540  0.18670593  0.99798484    -0.16400
C236        C  0.00438254  0.22996306  0.99708167     0.07700
C237        C  0.00354889  0.28065681  0.99666845     0.09500
C238        C  0.00288218  0.32396022  0.99696541    -0.17200
loop_ 
_geom_bond_atom_site_label_1 
_geom_bond_atom_site_label_2 
_geom_bond_distance 
_geom_bond_site_symmetry_2 
_ccdc_geom_bond_type 
N1            C6   1.358   1_655  A
N1            C5   1.354   1_655  A
N1           H33   1.037       .  S
N2            C9   1.352   1_455  A
N2           C10   1.356   1_455  A
N3            C8   1.354   1_655  A
N3            C7   1.359   1_655  A
N3           H34   1.037       .  S
N4           C11   1.356   1_455  A
N4           C12   1.353   1_455  A
C5           C13   1.389       .  A
C5           C21   1.420   1_554  A
C6           C22   1.419       .  A
C6           C14   1.386       .  A
C7           C15   1.386       .  A
C7           C24   1.420       .  A
C8           C23   1.420   1_556  A
C8           C16   1.389       .  A
C9           C21   1.418   1_655  A
C9           C17   1.388       .  A
C10          C24   1.417   1_655  A
C10          C18   1.386       .  A
C11          C19   1.385       .  A
C11          C22   1.417   1_655  A
C12          C20   1.388       .  A
C12          C23   1.418   1_655  A
C13          C14   1.377       .  A
C13          H25   1.082       .  S
C14          H26   1.082       .  S
C15          C16   1.377       .  A
C15          H27   1.082       .  S
C16          H28   1.082       .  S
C17          C18   1.374       .  A
C17          H29   1.082       .  S
C18          H30   1.082       .  S
C19          C20   1.375       .  A
C19          H31   1.082       .  S
C20          H32   1.082       .  S
C21         C238   1.453       .  S
C22         C230   1.468       .  S
C23         C231   1.455       .  S
C24         C223   1.468       .  S
N35          C40   1.358   1_455  A
N35          C39   1.353   1_455  A
N35          H67   1.034       .  S
N36          C43   1.353       .  A
N36          C44   1.356       .  A
N37          C42   1.354   1_455  A
N37          C41   1.359   1_455  A
N37          H68   1.035       .  S
N38          C45   1.357       .  A
N38          C46   1.353       .  A
C39          C47   1.389       .  A
C39          C55   1.420   1_655  A
C40          C56   1.421   1_655  A
C40          C48   1.387       .  A
C41          C49   1.386       .  A
C41          C58   1.421   1_655  A
C42          C57   1.421   1_655  A
C42          C50   1.389       .  A
C43          C55   1.420       .  A
C43          C51   1.389       .  A
C44          C58   1.418       .  A
C44          C52   1.386       .  A
C45          C53   1.385       .  A
C45          C56   1.419       .  A
C46          C54   1.388       .  A
C46          C57   1.420       .  A
C47          C48   1.376       .  A
C47          H59   1.082       .  S
C48          H60   1.082       .  S
C49          C50   1.376       .  A
C49          H61   1.082       .  S
C50          H62   1.082       .  S
C51          C52   1.374       .  A
C51          H63   1.082       .  S
C52          H64   1.082       .  S
C53          C54   1.374       .  A
C53          H65   1.082       .  S
C54          H66   1.082       .  S
C55         C219   1.452       .  S
C56         C226   1.469       .  S
C57         C215   1.455       .  S
C58         C227   1.469       .  S
O69          C85   1.269   1_645  A
O69         Zn75   1.971       .  S
C70         C203   1.437       .  S
C70          O86   1.271   1_564  A
C70          O83   1.272       .  A
O71          C84   1.272   1_554  A
O71         Cd78   2.070       .  S
O72          C90   1.271   1_665  A
O72         Cd81   2.035       .  S
O73          C87   1.272   1_556  A
O73         Cd77   2.072       .  S
O74          C85   1.270       .  A
O74         Cd77   2.031       .  S
Zn75         O86   2.020       .  S
Zn75         O88   2.025       .  S
Zn75         O80   1.941   1_646  S
O76          C87   1.273   1_655  A
O76         Cd81   2.079       .  S
Cd77         O79   2.076       .  S
Cd77         O80   1.997   1_556  S
Cd78         O82   2.076       .  S
Cd78         O91   2.028       .  S
Cd78         O80   1.995   1_545  S
O79          C89   1.273   1_566  A
O80         Cd81   1.997   1_455  S
Cd81         O83   2.071       .  S
O82          C89   1.273       .  A
C84         C235   1.438       .  S
C84          O88   1.272   1_455  A
C85         C210   1.405       .  S
C87         C234   1.440       .  S
C89         C202   1.440       .  S
C90         C214   1.405       .  S
C90          O91   1.269       .  A
O92         C108   1.268   1_655  A
O92         Zn98   1.966       .  S
C93         C195   1.436       .  S
C93         O109   1.271   1_565  A
C93         O106   1.271       .  A
O94         C107   1.271       .  A
O94        Cd101   2.070       .  S
O95         C113   1.269   1_655  A
O95        Cd104   2.030       .  S
O96         C110   1.273       .  A
O96        Cd100   2.077       .  S
O97         C108   1.270   1_565  A
O97        Cd100   2.035       .  S
Zn98        O109   2.020       .  S
Zn98        O111   2.015       .  S
Zn98        O103   1.937   1_645  S
O99         C110   1.273   1_655  A
O99        Cd104   2.074       .  S
Cd100       O102   2.074       .  S
Cd100       O103   1.997       .  S
Cd101       O105   2.072       .  S
Cd101       O114   2.033       .  S
Cd101       O103   1.996   1_545  S
O102        C112   1.272   1_565  A
O103       Cd104   1.994   1_455  S
Cd104       O106   2.068       .  S
O105        C112   1.272       .  A
C107        C222   1.436       .  S
C107        O111   1.271   1_455  A
C108        C211   1.405       .  S
C110        C218   1.439       .  S
C112        C194   1.438       .  S
C113        C207   1.405   1_455  S
C113        O114   1.270   1_565  A
N115        C120   1.358   1_565  A
N115        C119   1.353   1_565  A
N115        H147   1.038       .  S
N116        C123   1.352       .  A
N116        C124   1.355       .  A
N117        C122   1.354   1_565  A
N117        C121   1.359   1_565  A
N117        H148   1.038       .  S
N118        C125   1.355       .  A
N118        C126   1.352       .  A
C119        C127   1.389       .  A
C119        C135   1.418   1_544  A
C120        C136   1.418   1_545  A
C120        C128   1.386       .  A
C121        C129   1.386       .  A
C121        C138   1.420       .  A
C122        C137   1.420   1_546  A
C122        C130   1.388       .  A
C123        C135   1.416       .  A
C123        C131   1.388       .  A
C124        C138   1.417   1_565  A
C124        C132   1.386       .  A
C125        C133   1.385       .  A
C125        C136   1.416       .  A
C126        C134   1.388       .  A
C126        C137   1.417       .  A
C127        C128   1.377       .  A
C127        H139   1.082       .  S
C128        H140   1.082       .  S
C129        C130   1.377       .  A
C129        H141   1.082       .  S
C130        H142   1.082       .  S
C131        C132   1.375       .  A
C131        H143   1.082       .  S
C132        H144   1.082       .  S
C133        C134   1.375       .  A
C133        H145   1.082       .  S
C134        H146   1.082       .  S
C135        C206   1.452       .  S
C136        C187   1.467       .  S
C137        C199   1.455   1_565  S
C138        C183   1.469       .  S
N149        C154   1.360       .  A
N149        C153   1.355       .  A
N149        H181   1.033       .  S
N150        C157   1.352   1_565  A
N150        C158   1.355       .  A
N151        C156   1.355       .  A
N151        C155   1.360       .  A
N151        H182   1.035       .  S
N152        C159   1.356   1_565  A
N152        C160   1.352       .  A
C153        C161   1.389   1_545  A
C153        C169   1.423       .  A
C154        C170   1.423       .  A
C154        C162   1.386   1_545  A
C155        C163   1.386   1_565  A
C155        C172   1.422       .  A
C156        C171   1.423       .  A
C156        C164   1.389   1_565  A
C157        C169   1.420       .  A
C157        C165   1.389   1_545  A
C158        C172   1.418       .  A
C158        C166   1.386       .  A
C159        C167   1.386       .  A
C159        C170   1.420       .  A
C160        C168   1.389       .  A
C160        C171   1.420       .  A
C161        C162   1.375       .  A
C161        H173   1.082       .  S
C162        H174   1.082       .  S
C163        C164   1.375       .  A
C163        H175   1.082       .  S
C164        H176   1.082       .  S
C165        C166   1.373       .  A
C165        H177   1.082       .  S
C166        H178   1.082       .  S
C167        C168   1.373   1_545  A
C167        H179   1.082       .  S
C168        H180   1.082       .  S
C169        C198   1.453       .  S
C170        C186   1.471       .  S
C171        C191   1.454       .  S
C172        C190   1.468       .  S
C183        C184   1.218       .  T
C184        C185   1.431       .  S
C185        C186   1.218       .  T
C187        C188   1.216       .  T
C188        C189   1.428       .  S
C189        C190   1.216       .  T
C191        C192   1.207   1_565  T
C192        C193   1.414       .  S
C193        C194   1.207       .  T
C195        C196   1.206       .  T
C196        C197   1.412   1_565  S
C197        C198   1.207       .  T
C199        C200   1.209       .  T
C200        C201   1.416       .  S
C201        C202   1.208       .  T
C203        C204   1.207       .  T
C204        C205   1.414       .  S
C205        C206   1.207   1_554  T
C207        C208   1.188   1_655  T
C208        C209   1.383       .  S
C209        C210   1.188       .  T
C211        C212   1.188       .  T
C212        C213   1.383       .  S
C213        C214   1.188       .  T
C215        C216   1.208       .  T
C216        C217   1.416       .  S
C217        C218   1.208       .  T
C219        C220   1.206       .  T
C220        C221   1.412       .  S
C221        C222   1.206       .  T
C223        C224   1.217       .  T
C224        C225   1.430       .  S
C225        C226   1.217       .  T
C227        C228   1.217       .  T
C228        C229   1.430       .  S
C229        C230   1.217       .  T
C231        C232   1.208       .  T
C232        C233   1.416       .  S
C233        C234   1.208       .  T
C235        C236   1.207       .  T
C236        C237   1.414       .  S
C237        C238   1.207       .  T
