geometry optimzed in LAMMPS
_audit_creation_date              2020-11-30 
_audit_creation_method            'lammps2cif' 
_symmetry_space_group_name_H-M    'P1' 
_symmetry_Int_Tables_number       1 
_symmetry_cell_setting            triclinic 
loop_ 
_symmetry_equiv_pos_as_xyz 
  x,y,z 
_cell_length_a                    33.80740064500667 
_cell_length_b                    33.84982308348454 
_cell_length_c                    21.7410094913 
_cell_angle_alpha                 90.02767476466252 
_cell_angle_beta                  89.6592074089906 
_cell_angle_gamma                 93.16798661280956 
loop_ 
_atom_site_label 
_atom_site_type_symbol 
_atom_site_fract_x 
_atom_site_fract_y 
_atom_site_fract_z 
_atom_site_charge 
C1          C  0.50004210  0.99638368  0.46836579     0.00650
C2          C  0.50028716  0.99633682  0.03122944     0.00650
N3          N  0.52109524  0.08137829  0.37005403    -0.27210
N4          N  0.54209754  0.05471618  0.34257237    -0.35060
C5          C  0.54210033  0.02241957  0.37844248     0.01140
C6          C  0.51966131  0.02867055  0.43094134     0.07160
C7          C  0.50622659  0.06628515  0.42300862    -0.05940
H8          H  0.55273883  0.99438717  0.36351516     0.07830
H9          H  0.48301427  0.07960163  0.44853533     0.09030
Cu10       Cu  0.55584455  0.05716741  0.24929427     0.44170
Cu11       Cu  0.50911757  0.13467286  0.32996407     0.41990
Cu12       Cu  0.51415337  0.13681145  0.16537785     0.43880
N13         N  0.54327503  0.05477542  0.15586115    -0.34590
N14         N  0.52425184  0.08224101  0.12702215    -0.28850
C15         C  0.50931218  0.06705400  0.07436177    -0.04950
C16         C  0.52052512  0.02841518  0.06827207     0.07270
C17         C  0.54193590  0.02186797  0.12126078     0.01070
H18         H  0.48753257  0.08140783  0.04774670     0.08720
H19         H  0.55094456  0.99351117  0.13738204     0.07800
N20         N  0.51420471  0.18744378  0.21888632    -0.36040
N21         N  0.51175907  0.18645341  0.27954669    -0.28220
C22         C  0.51325374  0.22365763  0.30127127    -0.03460
C23         C  0.51766757  0.24928353  0.25197935     0.05150
C24         C  0.51749345  0.22539698  0.20033662     0.03240
H25         H  0.51082122  0.23149950  0.34934294     0.08350
H26         H  0.51854251  0.23487284  0.15280453     0.07180
N27         N  0.48124150  0.91062606  0.37131845    -0.27210
N28         N  0.45983227  0.93666937  0.34350842    -0.35060
C29         C  0.45876276  0.96907283  0.37908431     0.01140
C30         C  0.48089676  0.96357669  0.43170992     0.07160
C31         C  0.49516457  0.92624527  0.42423699    -0.05940
H32         H  0.44777443  0.99681539  0.36372640     0.07830
H33         H  0.51859552  0.91367184  0.44978395     0.09030
Cu34       Cu  0.44702263  0.93401359  0.25018923     0.44170
Cu35       Cu  0.49702194  0.85816958  0.33150697     0.41990
Cu36       Cu  0.49656801  0.85780442  0.16786211     0.43880
N37         N  0.45986647  0.93661212  0.15665137    -0.34590
N38         N  0.48120239  0.91048899  0.12843859    -0.28850
C39         C  0.49526962  0.92612427  0.07536325    -0.04950
C40         C  0.48113067  0.96352511  0.06821763     0.07270
C41         C  0.45894867  0.96905230  0.12118593     0.01070
H42         H  0.51865627  0.91346639  0.04936923     0.08720
H43         H  0.44803094  0.99682757  0.13678140     0.07800
N44         N  0.50316752  0.80716192  0.21942091    -0.36040
N45         N  0.50346861  0.80739865  0.28018342    -0.28220
C46         C  0.50432780  0.76999564  0.30070318    -0.03460
C47         C  0.50406370  0.74502719  0.25033530     0.05150
C48         C  0.50378317  0.76955270  0.19952155     0.03240
H49         H  0.50384948  0.76158948  0.34871150     0.08350
H50         H  0.50217099  0.76060002  0.15178754     0.07180
C51         C  0.99781891  0.49940643  0.46973039     0.00650
C52         C  0.99802463  0.50004110  0.03258920     0.00650
N53         N  0.08323862  0.48714506  0.37189810    -0.27210
N54         N  0.05643350  0.46368057  0.34408671    -0.35060
C55         C  0.02388581  0.46012138  0.37988931     0.01140
C56         C  0.03007215  0.48272771  0.43264742     0.07160
C57         C  0.06798087  0.49986030  0.42503472    -0.05940
H58         H  0.99572363  0.44697178  0.36462441     0.07830
H59         H  0.08131310  0.52438406  0.45068689     0.09030
Cu60       Cu  0.05843003  0.45102030  0.25057679     0.44170
Cu61       Cu  0.13617857  0.50772581  0.33181511     0.41990
Cu62       Cu  0.13595582  0.50678583  0.16849934     0.43880
N63         N  0.05611676  0.46350754  0.15708974    -0.34590
N64         N  0.08315806  0.48668509  0.12885839    -0.28850
C65         C  0.06811834  0.49964272  0.07603802    -0.04950
C66         C  0.03004925  0.48296351  0.06905029     0.07270
C67         C  0.02355356  0.46036017  0.12185100     0.01070
H68         H  0.08174891  0.52405260  0.05027278     0.08720
H69         H  0.99522235  0.44758491  0.13758047     0.07800
N70         N  0.18646761  0.52057966  0.21899848    -0.36040
N71         N  0.18662563  0.52115301  0.27973254    -0.28220
C72         C  0.22428868  0.52574021  0.29920267    -0.03460
C73         C  0.24892949  0.52857217  0.24818368     0.05150
C74         C  0.22397396  0.52466066  0.19816276     0.03240
H75         H  0.23328729  0.52355839  0.34671105     0.08350
H76         H  0.23264779  0.52159340  0.15048991     0.07180
N77         N  0.91365434  0.51195050  0.37110846    -0.27210
N78         N  0.94055221  0.53621550  0.34466811    -0.35060
C79         C  0.97256790  0.53955657  0.38101478     0.01140
C80         C  0.96586687  0.51607558  0.43280390     0.07160
C81         C  0.92833962  0.49846693  0.42390549    -0.05940
H82         H  0.00077360  0.55339582  0.36676670     0.07830
H83         H  0.91487621  0.47355390  0.44879767     0.09030
Cu84       Cu  0.93912811  0.55092423  0.25192388     0.44170
Cu85       Cu  0.86051738  0.49376057  0.33029364     0.41990
Cu86       Cu  0.85763769  0.50622040  0.16693279     0.43880
N87         N  0.94150073  0.53970296  0.15804013    -0.34590
N88         N  0.91280396  0.51997314  0.12826251    -0.28850
C89         C  0.92733453  0.50617754  0.07520739    -0.04950
C90         C  0.96700561  0.51866118  0.07006933     0.07270
C91         C  0.97468966  0.53987213  0.12379580     0.01070
H92         H  0.91144871  0.48422408  0.04749105     0.08720
H93         H  0.00364800  0.54975823  0.14056836     0.07800
N94         N  0.80721075  0.49793228  0.22097539    -0.36040
N95         N  0.80831585  0.49150206  0.28077246    -0.28220
C96         C  0.77109980  0.48867272  0.30311344    -0.03460
C97         C  0.74505775  0.49484014  0.25533298     0.05150
C98         C  0.76928710  0.50005487  0.20381775     0.03240
H99         H  0.76414144  0.48281025  0.35075761     0.08350
H100        H  0.76007220  0.50614495  0.15735976     0.07180
O101        O  0.49288814  0.43679952  0.30172729    -0.72860
O102        O  0.49667263  0.55610314  0.29871120    -0.73840
O103        O  0.43418875  0.49718789  0.30024560    -0.62460
O104        O  0.55404055  0.49736133  0.29893381    -0.70870
O105        O  0.55364396  0.49685720  0.19731636    -0.70420
O106        O  0.43440793  0.49527378  0.19822048    -0.61680
O107        O  0.49650396  0.55511016  0.19660127    -0.74180
O108        O  0.49379792  0.43543415  0.19973482    -0.72960
Cu109      Cu  0.49425495  0.49671296  0.30344998     1.04560
Cu110      Cu  0.49434830  0.49544854  0.19448140     1.04330
C111        C  0.49483447  0.41740751  0.25140000     0.93340
C112        C  0.49757970  0.57430349  0.24725983     0.92480
C113        C  0.41564810  0.49815926  0.24914427     0.84620
C114        C  0.57283716  0.49701336  0.24763642     0.90900
C115        C  0.63725443  0.51280064  0.29873947    -0.05690
C116        C  0.61704443  0.49696616  0.24722856     0.00230
C117        C  0.63942148  0.48105800  0.19834609    -0.08340
C118        C  0.68076049  0.48012994  0.20462653    -0.05720
C119        C  0.70094007  0.49567887  0.25627270     0.00220
C120        C  0.67882439  0.51339982  0.30374946    -0.08250
C121        C  0.69810430  0.53380885  0.35912859     0.62130
H122        H  0.62007361  0.52524751  0.33544726     0.12820
H123        H  0.69795114  0.46715021  0.16845932     0.12840
C124        C  0.62043548  0.46490131  0.13956917     0.62360
F125        F  0.67235708  0.55800923  0.38884315    -0.22800
F126        F  0.73087212  0.55739436  0.34122338    -0.20130
F127        F  0.70905450  0.50577185  0.40093370    -0.19810
F128        F  0.60383055  0.49520517  0.10780739    -0.19860
F129        F  0.59158282  0.43571802  0.15348316    -0.20180
F130        F  0.64767138  0.44846153  0.10072668    -0.22860
C131        C  0.30298328  0.48342971  0.24084765    -0.05690
C132        C  0.29166615  0.52219449  0.24758624     0.00230
C133        C  0.32078448  0.55344857  0.25348834    -0.08340
C134        C  0.36111105  0.54451346  0.25446617    -0.05720
C135        C  0.37258510  0.50536903  0.24864351     0.00220
C136        C  0.34298786  0.47457921  0.24095035    -0.08250
C137        C  0.35377150  0.43242942  0.23514822     0.62130
H138        H  0.28000830  0.46002440  0.23607577     0.12820
H139        H  0.38395134  0.56800645  0.25932701     0.12840
C140        C  0.30878842  0.59579636  0.25759139     0.62360
F141        F  0.32104279  0.40645624  0.22774556    -0.22800
F142        F  0.37267182  0.42253174  0.28848551    -0.20130
F143        F  0.37835478  0.42899855  0.18459999    -0.19810
F144        F  0.28596666  0.60053405  0.30980527    -0.19860
F145        F  0.28692709  0.60471380  0.20632467    -0.20180
F146        F  0.34134397  0.62225072  0.26021507    -0.22860
C147        C  0.53431069  0.68176158  0.22848305    -0.05690
C148        C  0.50155974  0.70132920  0.25030504     0.00230
C149        C  0.46704837  0.67912206  0.27001726    -0.08340
C150        C  0.46687663  0.63752221  0.26830222    -0.05720
C151        C  0.49971765  0.61796532  0.24669969     0.00220
C152        C  0.53411776  0.64018141  0.22679420    -0.08250
C153        C  0.57078375  0.61991368  0.20579690     0.62130
H154        H  0.56025968  0.69942375  0.21338176     0.12820
H155        H  0.44096107  0.61984896  0.28349503     0.12800
C156        C  0.43026369  0.69930479  0.29094544     0.62360
F157        F  0.60175852  0.64690996  0.19167246    -0.22800
F158        F  0.56227965  0.59753289  0.15385946    -0.20130
F159        F  0.58315614  0.59550619  0.25207261    -0.19810
F160        F  0.41843183  0.72454987  0.24539096    -0.19860
F161        F  0.43812441  0.72067628  0.34402374    -0.20180
F162        F  0.39907662  0.67230357  0.30339026    -0.22860
C163        C  0.47738203  0.30575532  0.27173183    -0.05690
C164        C  0.51394724  0.29241269  0.25368361     0.00230
C165        C  0.54525557  0.31996389  0.23763043    -0.08340
C166        C  0.53796300  0.36066872  0.23731152    -0.05720
C167        C  0.50058085  0.37407904  0.25311056     0.00220
C168        C  0.47015614  0.34608867  0.27146271    -0.08250
C169        C  0.42922864  0.35854291  0.28536624     0.62130
H170        H  0.45397597  0.28399061  0.28409497     0.12820
H171        H  0.56145857  0.38230663  0.22523249     0.12840
C172        C  0.58621329  0.30620113  0.22312622     0.62360
F173        F  0.40348030  0.32717567  0.30240559    -0.22800
F174        F  0.41516051  0.37474763  0.23237089    -0.20130
F175        F  0.43058838  0.38585733  0.33268829    -0.19810
F176        F  0.58490307  0.28298240  0.17078841    -0.19860
F177        F  0.59929481  0.28419360  0.27185209    -0.20180
F178        F  0.61339634  0.33769076  0.21332789    -0.22860
C179        C  0.50004210  0.99638368  0.96836579     0.00650
C180        C  0.50028716  0.99633682  0.53122944     0.00650
N181        N  0.52109524  0.08137829  0.87005403    -0.27210
N182        N  0.54209754  0.05471618  0.84257237    -0.35060
C183        C  0.54210033  0.02241957  0.87844248     0.01140
C184        C  0.51966131  0.02867055  0.93094134     0.07160
C185        C  0.50622660  0.06628515  0.92300862    -0.05940
H186        H  0.55273883  0.99438717  0.86351516     0.07830
H187        H  0.48301428  0.07960164  0.94853533     0.09030
Cu188      Cu  0.55584455  0.05716741  0.74929427     0.44170
Cu189      Cu  0.50911758  0.13467286  0.82996407     0.41990
Cu190      Cu  0.51415337  0.13681145  0.66537785     0.43880
N191        N  0.54327503  0.05477542  0.65586115    -0.34590
N192        N  0.52425185  0.08224101  0.62702215    -0.28850
C193        C  0.50931218  0.06705400  0.57436177    -0.04950
C194        C  0.52052512  0.02841518  0.56827207     0.07270
C195        C  0.54193590  0.02186797  0.62126078     0.01070
H196        H  0.48753258  0.08140784  0.54774670     0.08720
H197        H  0.55094456  0.99351116  0.63738204     0.07800
N198        N  0.51420472  0.18744378  0.71888632    -0.36040
N199        N  0.51175908  0.18645341  0.77954669    -0.28220
C200        C  0.51325375  0.22365763  0.80127127    -0.03460
C201        C  0.51766757  0.24928353  0.75197935     0.05150
C202        C  0.51749345  0.22539698  0.70033662     0.03240
H203        H  0.51082123  0.23149950  0.84934294     0.08350
H204        H  0.51854251  0.23487284  0.65280453     0.07180
N205        N  0.48124150  0.91062606  0.87131845    -0.27210
N206        N  0.45983227  0.93666937  0.84350842    -0.35060
C207        C  0.45876276  0.96907283  0.87908431     0.01140
C208        C  0.48089676  0.96357669  0.93170992     0.07160
C209        C  0.49516457  0.92624527  0.92423699    -0.05940
H210        H  0.44777443  0.99681539  0.86372640     0.07830
H211        H  0.51859552  0.91367184  0.94978395     0.09030
Cu212      Cu  0.44702263  0.93401359  0.75018923     0.44170
Cu213      Cu  0.49702194  0.85816958  0.83150697     0.41990
Cu214      Cu  0.49656801  0.85780442  0.66786211     0.43880
N215        N  0.45986647  0.93661212  0.65665137    -0.34590
N216        N  0.48120239  0.91048899  0.62843859    -0.28850
C217        C  0.49526962  0.92612427  0.57536325    -0.04950
C218        C  0.48113067  0.96352511  0.56821763     0.07270
C219        C  0.45894867  0.96905230  0.62118593     0.01070
H220        H  0.51865627  0.91346639  0.54936923     0.08720
H221        H  0.44803094  0.99682758  0.63678140     0.07800
N222        N  0.50316752  0.80716192  0.71942091    -0.36040
N223        N  0.50346861  0.80739864  0.78018342    -0.28220
C224        C  0.50432780  0.76999564  0.80070318    -0.03460
C225        C  0.50406370  0.74502719  0.75033529     0.05150
C226        C  0.50378317  0.76955270  0.69952155     0.03240
H227        H  0.50384948  0.76158947  0.84871150     0.08350
H228        H  0.50217099  0.76060002  0.65178754     0.07180
C229        C  0.99781892  0.49940643  0.96973039     0.00650
C230        C  0.99802463  0.50004110  0.53258920     0.00650
N231        N  0.08323863  0.48714506  0.87189810    -0.27210
N232        N  0.05643350  0.46368057  0.84408671    -0.35060
C233        C  0.02388581  0.46012138  0.87988931     0.01140
C234        C  0.03007216  0.48272771  0.93264742     0.07160
C235        C  0.06798087  0.49986030  0.92503472    -0.05940
H236        H  0.99572363  0.44697178  0.86462441     0.07830
H237        H  0.08131310  0.52438406  0.95068689     0.09030
Cu238      Cu  0.05843003  0.45102030  0.75057679     0.44170
Cu239      Cu  0.13617857  0.50772581  0.83181511     0.41990
Cu240      Cu  0.13595581  0.50678584  0.66849934     0.43880
N241        N  0.05611676  0.46350755  0.65708974    -0.34590
N242        N  0.08315806  0.48668510  0.62885839    -0.28850
C243        C  0.06811833  0.49964272  0.57603803    -0.04950
C244        C  0.03004925  0.48296351  0.56905029     0.07270
C245        C  0.02355356  0.46036017  0.62185100     0.01070
H246        H  0.08174891  0.52405261  0.55027278     0.08720
H247        H  0.99522235  0.44758491  0.63758047     0.07800
N248        N  0.18646761  0.52057966  0.71899848    -0.36040
N249        N  0.18662564  0.52115301  0.77973254    -0.28220
C250        C  0.22428868  0.52574020  0.79920267    -0.03460
C251        C  0.24892949  0.52857217  0.74818367     0.05150
C252        C  0.22397396  0.52466067  0.69816275     0.03240
H253        H  0.23328729  0.52355838  0.84671104     0.08350
H254        H  0.23264779  0.52159341  0.65048991     0.07180
N255        N  0.91365434  0.51195050  0.87110846    -0.27210
N256        N  0.94055222  0.53621550  0.84466811    -0.35060
C257        C  0.97256791  0.53955657  0.88101478     0.01140
C258        C  0.96586688  0.51607558  0.93280390     0.07160
C259        C  0.92833962  0.49846693  0.92390549    -0.05940
H260        H  0.00077360  0.55339582  0.86676669     0.07830
H261        H  0.91487621  0.47355390  0.94879767     0.09030
Cu262      Cu  0.93912811  0.55092423  0.75192389     0.44170
Cu263      Cu  0.86051738  0.49376057  0.83029365     0.41990
Cu264      Cu  0.85763769  0.50622040  0.66693279     0.43880
N265        N  0.94150073  0.53970296  0.65804013    -0.34590
N266        N  0.91280396  0.51997314  0.62826251    -0.28850
C267        C  0.92733453  0.50617754  0.57520739    -0.04950
C268        C  0.96700561  0.51866118  0.57006933     0.07270
C269        C  0.97468966  0.53987213  0.62379580     0.01070
H270        H  0.91144871  0.48422408  0.54749105     0.08720
H271        H  0.00364800  0.54975823  0.64056836     0.07800
N272        N  0.80721075  0.49793228  0.72097540    -0.36040
N273        N  0.80831585  0.49150206  0.78077246    -0.28220
C274        C  0.77109980  0.48867272  0.80311345    -0.03460
C275        C  0.74505775  0.49484014  0.75533298     0.05150
C276        C  0.76928710  0.50005487  0.70381775     0.03240
H277        H  0.76414143  0.48281025  0.85075761     0.08350
H278        H  0.76007221  0.50614495  0.65735976     0.07180
O279        O  0.49288813  0.43679952  0.80172728    -0.72860
O280        O  0.49667263  0.55610314  0.79871119    -0.73840
O281        O  0.43418875  0.49718789  0.80024559    -0.62460
O282        O  0.55404055  0.49736132  0.79893380    -0.70870
O283        O  0.55364396  0.49685720  0.69731635    -0.70420
O284        O  0.43440793  0.49527379  0.69822046    -0.61680
O285        O  0.49650396  0.55511016  0.69660126    -0.74180
O286        O  0.49379791  0.43543415  0.69973481    -0.72960
Cu287      Cu  0.49425495  0.49671296  0.80344997     1.04560
Cu288      Cu  0.49434830  0.49544854  0.69448139     1.04330
C289        C  0.49483446  0.41740751  0.75139999     0.93340
C290        C  0.49757971  0.57430349  0.74725982     0.92480
C291        C  0.41564811  0.49815926  0.74914425     0.84620
C292        C  0.57283716  0.49701336  0.74763641     0.90900
C293        C  0.63725443  0.51280064  0.79873947    -0.05690
C294        C  0.61704443  0.49696616  0.74722855     0.00230
C295        C  0.63942148  0.48105800  0.69834608    -0.08340
C296        C  0.68076049  0.48012994  0.70462653    -0.05720
C297        C  0.70094007  0.49567887  0.75627269     0.00220
C298        C  0.67882439  0.51339982  0.80374945    -0.08250
C299        C  0.69810430  0.53380886  0.85912858     0.62130
H300        H  0.62007361  0.52524751  0.83544725     0.12820
H301        H  0.69795114  0.46715021  0.66845932     0.12840
C302        C  0.62043548  0.46490131  0.63956917     0.62360
F303        F  0.67235708  0.55800924  0.88884314    -0.22800
F304        F  0.73087212  0.55739437  0.84122336    -0.20130
F305        F  0.70905450  0.50577186  0.90093369    -0.19810
F306        F  0.60383056  0.49520516  0.60780739    -0.19860
F307        F  0.59158282  0.43571801  0.65348315    -0.20180
F308        F  0.64767138  0.44846153  0.60072667    -0.22860
C309        C  0.30298329  0.48342971  0.74084764    -0.05690
C310        C  0.29166615  0.52219449  0.74758623     0.00230
C311        C  0.32078448  0.55344857  0.75348833    -0.08340
C312        C  0.36111105  0.54451347  0.75446616    -0.05720
C313        C  0.37258510  0.50536904  0.74864349     0.00220
C314        C  0.34298786  0.47457921  0.74095034    -0.08250
C315        C  0.35377151  0.43242943  0.73514822     0.62130
H316        H  0.28000831  0.46002440  0.73607576     0.12820
H317        H  0.38395134  0.56800646  0.75932699     0.12840
C318        C  0.30878842  0.59579637  0.75759137     0.62360
F319        F  0.32104279  0.40645624  0.72774556    -0.22800
F320        F  0.37267182  0.42253174  0.78848551    -0.20130
F321        F  0.37835478  0.42899855  0.68459999    -0.19810
F322        F  0.28596666  0.60053405  0.80980526    -0.19860
F323        F  0.28692709  0.60471380  0.70632466    -0.20180
F324        F  0.34134397  0.62225072  0.76021505    -0.22860
C325        C  0.53431069  0.68176158  0.72848305    -0.05690
C326        C  0.50155974  0.70132920  0.75030503     0.00230
C327        C  0.46704838  0.67912206  0.77001726    -0.08340
C328        C  0.46687664  0.63752221  0.76830222    -0.05720
C329        C  0.49971765  0.61796532  0.74669968     0.00220
C330        C  0.53411776  0.64018141  0.72679419    -0.08250
C331        C  0.57078375  0.61991368  0.70579689     0.62130
H332        H  0.56025969  0.69942375  0.71338176     0.12820
H333        H  0.44096108  0.61984896  0.78349502     0.12800
C334        C  0.43026369  0.69930478  0.79094544     0.62360
F335        F  0.60175852  0.64690996  0.69167245    -0.22800
F336        F  0.56227965  0.59753289  0.65385946    -0.20130
F337        F  0.58315614  0.59550619  0.75207260    -0.19810
F338        F  0.41843183  0.72454986  0.74539096    -0.19860
F339        F  0.43812441  0.72067627  0.84402373    -0.20180
F340        F  0.39907662  0.67230356  0.80339025    -0.22860
C341        C  0.47738203  0.30575532  0.77173184    -0.05690
C342        C  0.51394724  0.29241269  0.75368361     0.00230
C343        C  0.54525557  0.31996389  0.73763041    -0.08340
C344        C  0.53796299  0.36066872  0.73731151    -0.05720
C345        C  0.50058085  0.37407904  0.75311055     0.00220
C346        C  0.47015614  0.34608867  0.77146271    -0.08250
C347        C  0.42922864  0.35854291  0.78536625     0.62130
H348        H  0.45397597  0.28399061  0.78409498     0.12820
H349        H  0.56145856  0.38230663  0.72523247     0.12840
C350        C  0.58621328  0.30620114  0.72312620     0.62360
F351        F  0.40348031  0.32717566  0.80240563    -0.22800
F352        F  0.41516050  0.37474761  0.73237090    -0.20130
F353        F  0.43058839  0.38585733  0.83268830    -0.19810
F354        F  0.58490306  0.28298240  0.67078840    -0.19860
F355        F  0.59929481  0.28419361  0.77185207    -0.20180
F356        F  0.61339633  0.33769076  0.71332787    -0.22860
loop_ 
_geom_bond_atom_site_label_1 
_geom_bond_atom_site_label_2 
_geom_bond_distance 
_geom_bond_site_symmetry_2 
_ccdc_geom_bond_type 
C1            C6   1.487   1_565  S
C1           C30   1.488       .  S
C1          C180   1.367       .  D
C2           C40   1.488       .  S
C2           C16   1.490   1_565  S
C2          C179   1.367   1_554  D
N3            N4   1.319       .  A
N3            C7   1.343       .  A
N3          Cu11   2.065       .  S
N4            C5   1.343       .  A
N4          Cu10   2.079       .  S
C5            C6   1.389       .  A
C5            H8   1.082   1_545  S
C6            C7   1.386       .  A
C7            H9   1.077       .  S
Cu10         N13   2.078       .  S
Cu11         N21   2.065       .  S
Cu12         N14   2.071       .  S
Cu12         N20   2.071       .  S
N13          N14   1.320       .  A
N13          C17   1.343       .  A
N14          C15   1.345       .  A
C15          C16   1.388       .  A
C15          H18   1.076       .  S
C16          C17   1.389       .  A
C17          H19   1.082   1_545  S
N20          N21   1.321       .  A
N20          C24   1.345       .  A
N21          C22   1.343       .  A
C22          C23   1.381       .  A
C22          H25   1.082       .  S
C23          C24   1.383       .  A
C23         C164   1.473       .  S
C24          H26   1.082       .  S
N27          N28   1.320       .  A
N27          C31   1.343       .  A
N27         Cu35   2.070       .  S
N28          C29   1.344       .  A
N28         Cu34   2.078       .  S
C29          C30   1.389       .  A
C29          H32   1.082       .  S
C30          C31   1.386       .  A
C31          H33   1.077       .  S
Cu34         N37   2.078       .  S
Cu35         N45   2.069       .  S
Cu36         N38   2.072       .  S
Cu36         N44   2.072       .  S
N37          N38   1.320       .  A
N37          C41   1.344       .  A
N38          C39   1.343       .  A
C39          C40   1.387       .  A
C39          H42   1.077       .  S
C40          C41   1.389       .  A
C41          H43   1.082       .  S
N44          N45   1.321       .  A
N44          C48   1.346       .  A
N45          C46   1.344       .  A
C46          C47   1.383       .  A
C46          H49   1.082       .  S
C47          C48   1.383       .  A
C47         C148   1.477       .  S
C48          H50   1.082       .  S
C51          C80   1.486       .  S
C51          C56   1.488   1_655  S
C51         C230   1.367       .  D
C52          C66   1.488   1_655  S
C52          C90   1.491       .  S
C52         C229   1.367   1_554  D
N53          N54   1.321       .  A
N53          C57   1.343       .  A
N53         Cu61   2.072       .  S
N54          C55   1.344       .  A
N54         Cu60   2.079       .  S
C55          C56   1.389       .  A
C55          H58   1.082   1_455  S
C56          C57   1.386       .  A
C57          H59   1.079       .  S
Cu60         N63   2.079       .  S
Cu61         N71   2.071       .  S
Cu62         N64   2.068       .  S
Cu62         N70   2.067       .  S
N63          N64   1.320       .  A
N63          C67   1.344       .  A
N64          C65   1.342       .  A
C65          C66   1.386       .  A
C65          H68   1.079       .  S
C66          C67   1.389       .  A
C67          H69   1.083   1_455  S
N70          N71   1.321       .  A
N70          C74   1.344       .  A
N71          C72   1.345       .  A
C72          C73   1.383       .  A
C72          H75   1.082       .  S
C73          C74   1.382       .  A
C73         C132   1.473       .  S
C74          H76   1.082       .  S
N77          N78   1.320       .  A
N77          C81   1.343       .  A
N77         Cu85   2.071       .  S
N78          C79   1.344       .  A
N78         Cu84   2.079       .  S
C79          C80   1.389       .  A
C79          H82   1.083   1_655  S
C80          C81   1.386       .  A
C81          H83   1.080       .  S
Cu84         N87   2.078       .  S
Cu85         N95   2.071       .  S
Cu86         N88   2.071       .  S
Cu86         N94   2.071       .  S
N87          N88   1.320       .  A
N87          C91   1.343       .  A
N88          C89   1.345       .  A
C89          C90   1.388       .  A
C89          H92   1.078       .  S
C90          C91   1.389       .  A
C91          H93   1.082   1_655  S
N94          N95   1.319       .  A
N94          C98   1.343       .  A
N95          C96   1.344       .  A
C96          C97   1.389       .  A
C96          H99   1.077       .  S
C97          C98   1.389       .  A
C97         C119   1.493       .  S
C98         H100   1.082       .  S
O101       Cu109   2.026       .  S
O101        C111   1.279       .  A
O102       Cu109   2.010       .  S
O102        C112   1.277       .  A
O103       Cu109   2.033       .  S
O103        C113   1.280       .  A
O104       Cu109   2.022       .  S
O104        C114   1.281       .  A
O105       Cu110   2.004       .  S
O105        C114   1.275       .  A
O106       Cu110   2.027       .  S
O106        C113   1.279       .  A
O107       Cu110   2.017       .  S
O107        C112   1.278       .  A
O108       Cu110   2.034       .  S
O108        C111   1.280       .  A
Cu109      Cu110   2.369       .  S
C111        C167   1.491       .  S
C112        C151   1.476       .  S
C113        C135   1.490       .  S
C114        C116   1.495       .  S
C115        C116   1.406       .  A
C115        C120   1.409       .  A
C115        H122   1.083       .  S
C116        C117   1.424       .  A
C117        C118   1.407       .  A
C117        C124   1.521       .  S
C118        C119   1.404       .  A
C118        H123   1.082       .  S
C119        C120   1.423       .  A
C120        C121   1.520       .  S
C121        F125   1.385       .  S
C121        F126   1.383       .  S
C121        F127   1.381       .  S
C124        F128   1.383       .  S
C124        F129   1.382       .  S
C124        F130   1.385       .  S
C131        C132   1.394       .  A
C131        C136   1.401       .  A
C131        H138   1.084       .  S
C132        C133   1.411       .  A
C133        C134   1.413       .  A
C133        C140   1.514       .  S
C134        C135   1.407       .  A
C134        H139   1.083       .  S
C135        C136   1.415       .  A
C136        C137   1.497       .  S
C137        F141   1.385       .  S
C137        F142   1.378       .  S
C137        F143   1.383       .  S
C140        F144   1.383       .  S
C140        F145   1.384       .  S
C140        F146   1.381       .  S
C147        C148   1.402       .  A
C147        C152   1.408       .  A
C147        H154   1.083       .  S
C148        C149   1.417       .  A
C149        C150   1.408       .  A
C149        C156   1.519       .  S
C150        C151   1.402       .  A
C150        H155   1.083       .  S
C151        C152   1.415       .  A
C152        C153   1.517       .  S
C153        F157   1.384       .  S
C153        F158   1.382       .  S
C153        F159   1.383       .  S
C156        F160   1.384       .  S
C156        F161   1.381       .  S
C156        F162   1.382       .  S
C163        C164   1.394       .  A
C163        C168   1.400       .  A
C163        H170   1.084       .  S
C164        C165   1.414       .  A
C165        C166   1.413       .  A
C165        C172   1.516       .  S
C166        C167   1.407       .  A
C166        H171   1.082       .  S
C167        C168   1.415       .  A
C168        C169   1.498       .  S
C169        F173   1.384       .  S
C169        F174   1.375       .  S
C169        F175   1.382       .  S
C172        F176   1.382       .  S
C172        F177   1.384       .  S
C172        F178   1.384       .  S
C179        C184   1.487   1_565  S
C179        C208   1.488       .  S
C180        C218   1.488       .  S
C180        C194   1.490   1_565  S
N181        N182   1.319       .  A
N181        C185   1.343       .  A
N181       Cu189   2.065       .  S
N182        C183   1.343       .  A
N182       Cu188   2.079       .  S
C183        C184   1.389       .  A
C183        H186   1.082   1_545  S
C184        C185   1.386       .  A
C185        H187   1.077       .  S
Cu188       N191   2.078       .  S
Cu189       N199   2.065       .  S
Cu190       N192   2.071       .  S
Cu190       N198   2.071       .  S
N191        N192   1.320       .  A
N191        C195   1.343       .  A
N192        C193   1.345       .  A
C193        C194   1.388       .  A
C193        H196   1.076       .  S
C194        C195   1.389       .  A
C195        H197   1.082   1_545  S
N198        N199   1.321       .  A
N198        C202   1.345       .  A
N199        C200   1.343       .  A
C200        C201   1.381       .  A
C200        H203   1.082       .  S
C201        C202   1.383       .  A
C201        C342   1.473       .  S
C202        H204   1.082       .  S
N205        N206   1.320       .  A
N205        C209   1.343       .  A
N205       Cu213   2.070       .  S
N206        C207   1.344       .  A
N206       Cu212   2.078       .  S
C207        C208   1.389       .  A
C207        H210   1.082       .  S
C208        C209   1.386       .  A
C209        H211   1.077       .  S
Cu212       N215   2.078       .  S
Cu213       N223   2.069       .  S
Cu214       N216   2.072       .  S
Cu214       N222   2.072       .  S
N215        N216   1.320       .  A
N215        C219   1.344       .  A
N216        C217   1.343       .  A
C217        C218   1.387       .  A
C217        H220   1.077       .  S
C218        C219   1.389       .  A
C219        H221   1.082       .  S
N222        N223   1.321       .  A
N222        C226   1.346       .  A
N223        C224   1.344       .  A
C224        C225   1.383       .  A
C224        H227   1.082       .  S
C225        C226   1.383       .  A
C225        C326   1.477       .  S
C226        H228   1.082       .  S
C229        C258   1.486       .  S
C229        C234   1.488   1_655  S
C230        C244   1.488   1_655  S
C230        C268   1.491       .  S
N231        N232   1.321       .  A
N231        C235   1.343       .  A
N231       Cu239   2.072       .  S
N232        C233   1.344       .  A
N232       Cu238   2.079       .  S
C233        C234   1.389       .  A
C233        H236   1.082   1_455  S
C234        C235   1.386       .  A
C235        H237   1.079       .  S
Cu238       N241   2.079       .  S
Cu239       N249   2.071       .  S
Cu240       N242   2.068       .  S
Cu240       N248   2.067       .  S
N241        N242   1.320       .  A
N241        C245   1.344       .  A
N242        C243   1.342       .  A
C243        C244   1.386       .  A
C243        H246   1.079       .  S
C244        C245   1.389       .  A
C245        H247   1.083   1_455  S
N248        N249   1.321       .  A
N248        C252   1.344       .  A
N249        C250   1.345       .  A
C250        C251   1.383       .  A
C250        H253   1.082       .  S
C251        C252   1.382       .  A
C251        C310   1.473       .  S
C252        H254   1.082       .  S
N255        N256   1.320       .  A
N255        C259   1.343       .  A
N255       Cu263   2.071       .  S
N256        C257   1.344       .  A
N256       Cu262   2.079       .  S
C257        C258   1.389       .  A
C257        H260   1.083   1_655  S
C258        C259   1.386       .  A
C259        H261   1.080       .  S
Cu262       N265   2.078       .  S
Cu263       N273   2.071       .  S
Cu264       N266   2.071       .  S
Cu264       N272   2.071       .  S
N265        N266   1.320       .  A
N265        C269   1.343       .  A
N266        C267   1.345       .  A
C267        C268   1.388       .  A
C267        H270   1.078       .  S
C268        C269   1.389       .  A
C269        H271   1.082   1_655  S
N272        N273   1.319       .  A
N272        C276   1.343       .  A
N273        C274   1.344       .  A
C274        C275   1.389       .  A
C274        H277   1.077       .  S
C275        C276   1.389       .  A
C275        C297   1.493       .  S
C276        H278   1.082       .  S
O279       Cu287   2.026       .  S
O279        C289   1.279       .  A
O280       Cu287   2.010       .  S
O280        C290   1.277       .  A
O281       Cu287   2.033       .  S
O281        C291   1.280       .  A
O282       Cu287   2.022       .  S
O282        C292   1.281       .  A
O283       Cu288   2.004       .  S
O283        C292   1.275       .  A
O284       Cu288   2.027       .  S
O284        C291   1.279       .  A
O285       Cu288   2.017       .  S
O285        C290   1.278       .  A
O286       Cu288   2.034       .  S
O286        C289   1.280       .  A
Cu287      Cu288   2.369       .  S
C289        C345   1.491       .  S
C290        C329   1.476       .  S
C291        C313   1.490       .  S
C292        C294   1.495       .  S
C293        C294   1.406       .  A
C293        C298   1.409       .  A
C293        H300   1.083       .  S
C294        C295   1.424       .  A
C295        C296   1.407       .  A
C295        C302   1.521       .  S
C296        C297   1.404       .  A
C296        H301   1.082       .  S
C297        C298   1.423       .  A
C298        C299   1.520       .  S
C299        F303   1.385       .  S
C299        F304   1.383       .  S
C299        F305   1.381       .  S
C302        F306   1.383       .  S
C302        F307   1.382       .  S
C302        F308   1.385       .  S
C309        C310   1.394       .  A
C309        C314   1.401       .  A
C309        H316   1.084       .  S
C310        C311   1.411       .  A
C311        C312   1.413       .  A
C311        C318   1.514       .  S
C312        C313   1.407       .  A
C312        H317   1.083       .  S
C313        C314   1.415       .  A
C314        C315   1.497       .  S
C315        F319   1.385       .  S
C315        F320   1.378       .  S
C315        F321   1.383       .  S
C318        F322   1.383       .  S
C318        F323   1.384       .  S
C318        F324   1.381       .  S
C325        C326   1.402       .  A
C325        C330   1.408       .  A
C325        H332   1.083       .  S
C326        C327   1.417       .  A
C327        C328   1.408       .  A
C327        C334   1.519       .  S
C328        C329   1.402       .  A
C328        H333   1.083       .  S
C329        C330   1.415       .  A
C330        C331   1.517       .  S
C331        F335   1.384       .  S
C331        F336   1.382       .  S
C331        F337   1.383       .  S
C334        F338   1.384       .  S
C334        F339   1.381       .  S
C334        F340   1.382       .  S
C341        C342   1.394       .  A
C341        C346   1.400       .  A
C341        H348   1.084       .  S
C342        C343   1.414       .  A
C343        C344   1.413       .  A
C343        C350   1.516       .  S
C344        C345   1.407       .  A
C344        H349   1.082       .  S
C345        C346   1.415       .  A
C346        C347   1.498       .  S
C347        F351   1.384       .  S
C347        F352   1.375       .  S
C347        F353   1.382       .  S
C350        F354   1.382       .  S
C350        F355   1.384       .  S
C350        F356   1.384       .  S
