geometry optimzed in LAMMPS
_audit_creation_date              2020-11-30 
_audit_creation_method            'lammps2cif' 
_symmetry_space_group_name_H-M    'P1' 
_symmetry_Int_Tables_number       1 
_symmetry_cell_setting            triclinic 
loop_ 
_symmetry_equiv_pos_as_xyz 
  x,y,z 
_cell_length_a                    28.38088448 
_cell_length_b                    27.797644733853996 
_cell_length_c                    40.361009055317794 
_cell_angle_alpha                 89.86159898044028 
_cell_angle_beta                  90.14663104431727 
_cell_angle_gamma                 90.00180892742915 
loop_ 
_atom_site_label 
_atom_site_type_symbol 
_atom_site_fract_x 
_atom_site_fract_y 
_atom_site_fract_z 
_atom_site_charge 
N1          N  0.07040947  0.99975803  0.99517631    -0.36400
N2          N  0.99837718  0.07387910  0.99830175    -0.57000
N3          N  0.92606017  0.99983299  0.99468494    -0.36400
N4          N  0.99813675  0.92562753  0.99623153    -0.57000
C5          C  0.09674915  0.03868461  0.00303491     0.27100
C6          C  0.09663885  0.96033894  0.00208315     0.27100
C7          C  0.89979076  0.03883687  0.00236159     0.27100
C8          C  0.89962101  0.96049592  0.00135814     0.27100
C9          C  0.03650322  0.10174305  0.99250603     0.35800
C10         C  0.96029248  0.10179750  0.99237373     0.35800
C11         C  0.03624785  0.89800401  0.98996311     0.35800
C12         C  0.96000298  0.89805199  0.98977523     0.35800
C13         C  0.14024434  0.02385100  0.01499648    -0.21700
C14         C  0.14016531  0.97439536  0.01442338    -0.21700
C15         C  0.85609320  0.02415548  0.01387553    -0.21700
C16         C  0.85600312  0.97470307  0.01328782    -0.21700
C17         C  0.02257753  0.14754325  0.98297883    -0.22800
C18         C  0.97424329  0.14759773  0.98295674    -0.22800
C19         C  0.02226408  0.85270144  0.97953992    -0.22800
C20         C  0.97393087  0.85272084  0.97945367    -0.22800
C21         C  0.08361487  0.08717312  0.99771127    -0.18100
C22         C  0.08338249  0.91219883  0.99560460    -0.18100
C23         C  0.91287638  0.91228205  0.99519529    -0.18100
C24         C  0.91316551  0.08728369  0.99729692    -0.18100
H25         H  0.16918651  0.04632688  0.02309543     0.14800
H26         H  0.16904699  0.95142572  0.02202048     0.14800
H27         H  0.82713883  0.04673822  0.02170520     0.14800
H28         H  0.82696258  0.95184284  0.02063321     0.14800
H29         H  0.04486811  0.17785204  0.97684311     0.13100
H30         H  0.95194345  0.17793865  0.97682482     0.13100
H31         H  0.04451138  0.82265594  0.97285137     0.13100
H32         H  0.95162721  0.82270439  0.97270530     0.13100
H33         H  0.03875570  0.00017796  0.98219449     0.26300
H34         H  0.95790577  0.00018409  0.98204923     0.26300
N35         N  0.92656814  0.00085790  0.48839290    -0.36400
N36         N  0.99891071  0.92701562  0.49071953    -0.57000
N37         N  0.07122523  0.00097029  0.49018880    -0.36400
N38         N  0.99905280  0.07480788  0.49200008    -0.57000
C39         C  0.90026389  0.96145224  0.49517958     0.27100
C40         C  0.90039473  0.03981597  0.49637178     0.27100
C41         C  0.09713784  0.96175592  0.49816100     0.27100
C42         C  0.09724065  0.04007417  0.49811449     0.27100
C43         C  0.96099945  0.89915573  0.48422891     0.35800
C44         C  0.03722723  0.89920531  0.48555080     0.35800
C45         C  0.96095180  0.10276916  0.48628504     0.35800
C46         C  0.03717479  0.10279365  0.48646006     0.35800
C47         C  0.85672948  0.97552988  0.50729545    -0.21700
C48         C  0.85684034  0.02498751  0.50810504    -0.21700
C49         C  0.14014054  0.97612579  0.51121294    -0.21700
C50         C  0.14023155  0.02559198  0.51113159    -0.21700
C51         C  0.97526337  0.85349786  0.47485955    -0.22800
C52         C  0.02361440  0.85353871  0.47567085    -0.22800
C53         C  0.97491568  0.14868355  0.47709273    -0.22800
C54         C  0.02326713  0.14868432  0.47717484    -0.22800
C55         C  0.91379170  0.91323533  0.48937769    -0.18100
C56         C  0.91387139  0.08836232  0.49168188    -0.18100
C57         C  0.08419738  0.08838059  0.49213881    -0.18100
C58         C  0.08408428  0.91347021  0.49211323    -0.18100
H59         H  0.82783831  0.95256691  0.51478556     0.14800
H60         H  0.82801327  0.04745438  0.51630573     0.14800
H61         H  0.16867744  0.95334558  0.51968546     0.14800
H62         H  0.16881495  0.04830615  0.51954274     0.14800
H63         H  0.95313750  0.82313336  0.46856762     0.13100
H64         H  0.04612583  0.82321769  0.47007592     0.13100
H65         H  0.95261053  0.17913949  0.47125316     0.13100
H66         H  0.04559161  0.17914637  0.47146531     0.13100
H67         H  0.95842267  0.00125313  0.47576219     0.26300
H68         H  0.04007744  0.00108373  0.47661134     0.26300
O69         O  0.59527625  0.55887031  0.01630506    -0.78300
C70         C  0.49906157  0.49956601  0.08996602     0.82700
O71         O  0.55698487  0.39891101  0.97823434    -0.79400
O72         O  0.40020733  0.44066806  0.01683122    -0.80900
O73         O  0.43973959  0.60044759  0.97717780    -0.80700
O74         O  0.55747315  0.60008657  0.97706183    -0.79300
Zn75       Zn  0.55555933  0.49980396  0.02526969     1.55700
O76         O  0.40078260  0.56036999  0.01629491    -0.80700
Cd77       Cd  0.49851754  0.55836119  0.96843812     1.59700
Cd78       Cd  0.49842080  0.44113245  0.96912450     1.59600
O79         O  0.49761258  0.53944542  0.91890544    -0.80700
O80         O  0.49938227  0.49995930  0.99747411    -1.91200
Cd81       Cd  0.44162478  0.50039929  0.02561429     1.59900
O82         O  0.49875707  0.45930075  0.91941880    -0.80700
O83         O  0.45936195  0.50045347  0.07516941    -0.79300
C84         C  0.59237850  0.40460737  0.99732536     0.83200
C85         C  0.59215441  0.59502047  0.99689443     0.82800
O86         O  0.53773300  0.49908821  0.07390356    -0.78300
C87         C  0.40468885  0.59608005  0.99663948     0.83700
O88         O  0.59599411  0.44128273  0.01609470    -0.78400
C89         C  0.49803126  0.49921428  0.90379868     0.83800
C90         C  0.40378868  0.40486345  0.99733765     0.84100
O91         O  0.43881664  0.40011347  0.97789373    -0.80800
O92         O  0.53880491  0.50081210  0.42007546    -0.78300
C93         C  0.59340569  0.59553799  0.49730778     0.82700
O94         O  0.55972929  0.40126857  0.51756416    -0.79400
O95         O  0.49932634  0.54006383  0.57478120    -0.80900
O96         O  0.40121637  0.56086011  0.47698305    -0.80700
O97         O  0.46041261  0.50088680  0.41866284    -0.79300
Zn98       Zn  0.55642176  0.50068591  0.46874676     1.55700
O99         O  0.43976745  0.60041269  0.51660747    -0.80700
Cd100      Cd  0.44244326  0.50087391  0.46810257     1.59700
Cd101      Cd  0.49951176  0.44175592  0.52501588     1.59600
O102        O  0.40147052  0.44073101  0.47687335    -0.80700
O103        O  0.50026777  0.50058960  0.49641332    -1.91200
Cd104      Cd  0.49943589  0.55904398  0.52521913     1.59900
O105        O  0.44075870  0.39968187  0.51555014    -0.80700
O106        O  0.55851712  0.60089929  0.51679426    -0.79300
C107        C  0.59455369  0.40663342  0.49800353     0.83200
C108        C  0.50007977  0.50080040  0.40394905     0.82800
O109        O  0.59631582  0.55941912  0.47799557    -0.78300
C110        C  0.40479091  0.59619008  0.49691613     0.83700
O111        O  0.59695900  0.44224553  0.47809331    -0.78400
C112        C  0.40550554  0.40460298  0.49618089     0.83800
C113        C  0.49786875  0.49986160  0.59000853     0.84100
O114        O  0.49731471  0.45994173  0.57455499    -0.80800
C115        C  0.49676362  0.49948299  0.62664541    -0.03200
C116        C  0.48496398  0.45721519  0.64400442    -0.08900
C117        C  0.48410512  0.45683983  0.67862602    -0.16600
C118        C  0.49527076  0.49854907  0.69631611     0.25500
C119        C  0.50694464  0.54078413  0.67928597    -0.18300
C120        C  0.50755906  0.54134061  0.64466360    -0.07200
C121        C  0.49520873  0.49792898  0.73193615    -0.13600
C122        C  0.49558894  0.49772079  0.76178665    -0.13400
C123        C  0.49627618  0.49802679  0.79740796     0.25400
C124        C  0.48941033  0.54114857  0.81452819    -0.18800
C125        C  0.49011756  0.54161240  0.84914970    -0.07200
C126        C  0.49756472  0.49881461  0.86711467    -0.03300
C127        C  0.50441350  0.45561329  0.84964590    -0.08600
C128        C  0.50385901  0.45529204  0.81501202    -0.16300
H129        H  0.47623188  0.42448646  0.63084593     0.11900
H130        H  0.47496262  0.42397570  0.69158981     0.11200
H131        H  0.51568094  0.57325558  0.69276935     0.11100
H132        H  0.51689106  0.57439338  0.63202880     0.11600
H133        H  0.48351281  0.57442836  0.80111419     0.11700
H134        H  0.48460654  0.57543300  0.86182166     0.11700
H135        H  0.51035729  0.42208044  0.86271300     0.11800
H136        H  0.50927432  0.42172124  0.80197698     0.10600
C137        C  0.50011498  0.49895359  0.12667664    -0.03200
C138        C  0.45805617  0.50282577  0.14491804    -0.08900
C139        C  0.45899621  0.50217881  0.17954153    -0.16600
C140        C  0.50188053  0.49756444  0.19641478     0.25500
C141        C  0.54387709  0.49357236  0.17854466    -0.18300
C142        C  0.54305782  0.49430169  0.14390196    -0.07200
C143        C  0.50275799  0.49734127  0.23205151    -0.13600
C144        C  0.50294757  0.49766995  0.26191054    -0.13400
C145        C  0.50237985  0.49853859  0.29753854     0.25400
C146        C  0.54456332  0.50247048  0.31536034    -0.18800
C147        C  0.54392832  0.50336119  0.35000311    -0.07200
C148        C  0.50098525  0.50040114  0.36725221    -0.03300
C149        C  0.45875663  0.49666034  0.34904947    -0.08600
C150        C  0.45951172  0.49568489  0.31444550    -0.16300
H151        H  0.42439818  0.50648283  0.13246766     0.11900
H152        H  0.42628036  0.50534732  0.19314556     0.11200
H153        H  0.57727161  0.49000336  0.19138457     0.11100
H154        H  0.57602401  0.49113772  0.13063838     0.11600
H155        H  0.57794123  0.50480107  0.30248611     0.11700
H156        H  0.57702677  0.50635100  0.36324366     0.11700
H157        H  0.42509635  0.49425874  0.36151854     0.11800
H158        H  0.42664919  0.49269432  0.30087936     0.10600
C159        C  0.12127082  0.87592806  0.49358036    -0.03200
C160        C  0.15808314  0.87607584  0.47041329    -0.08900
C161        C  0.19322297  0.84088403  0.47182867    -0.16600
C162        C  0.19192772  0.80528537  0.49642957     0.25500
C163        C  0.15531696  0.80503458  0.51963995    -0.18300
C164        C  0.12014324  0.84022438  0.51824840    -0.07200
C165        C  0.22812648  0.76903160  0.49773968    -0.13600
C166        C  0.25864734  0.73884123  0.49824950    -0.13400
C167        C  0.29520773  0.70291580  0.49808622     0.25400
C168        C  0.29843485  0.67052494  0.47170236    -0.18800
C169        C  0.33403220  0.63575403  0.47132775    -0.07200
C170        C  0.36715427  0.63313385  0.49728108    -0.03300
C171        C  0.36368006  0.66592572  0.52367957    -0.08600
C172        C  0.32783650  0.70047700  0.52410152    -0.16300
H173        H  0.15945362  0.90338784  0.45125275     0.11900
H174        H  0.22137115  0.84141514  0.45374954     0.11200
H175        H  0.15398222  0.77768880  0.53878565     0.11100
H176        H  0.09208446  0.83975638  0.53638746     0.11600
H177        H  0.27342031  0.67213504  0.45140455     0.11700
H178        H  0.33579807  0.61113749  0.45061350     0.11700
H179        H  0.38845711  0.66468014  0.54411218     0.11800
H180        H  0.32566421  0.72536085  0.54466105     0.10600
C181        C  0.63152117  0.63203823  0.49714985    -0.03200
C182        C  0.67025558  0.62729264  0.47568224    -0.08900
C183        C  0.70605999  0.66184858  0.47540730    -0.16600
C184        C  0.70374656  0.70157319  0.49656524     0.25500
C185        C  0.66555096  0.70650280  0.51815706    -0.18300
C186        C  0.62967137  0.67199963  0.51848123    -0.07200
C187        C  0.74028850  0.73750801  0.49580948    -0.13600
C188        C  0.77072739  0.76775931  0.49476136    -0.13400
C189        C  0.80685110  0.80408553  0.49325597     0.25400
C190        C  0.80690865  0.83783128  0.46740935    -0.18800
C191        C  0.84176881  0.87336257  0.46607442    -0.07200
C192        C  0.87696520  0.87530810  0.49053408    -0.03300
C193        C  0.87683327  0.84134525  0.51634723    -0.08600
C194        C  0.84191329  0.80591479  0.51770127    -0.16300
H195        H  0.67287051  0.59696684  0.45899947     0.10700
H196        H  0.73546921  0.65766345  0.45859419     0.11200
H197        H  0.66339695  0.73711475  0.53465099     0.11100
H198        H  0.60045622  0.67671768  0.53536769     0.11600
H199        H  0.77995426  0.83675375  0.44836909     0.11700
H200        H  0.84139640  0.89932934  0.44602466     0.11700
H201        H  0.90366035  0.84250396  0.53546509     0.11800
H202        H  0.84219915  0.78003907  0.53781717     0.10600
C203        C  0.87696709  0.12614116  0.49350490    -0.03200
C204        C  0.84039158  0.12746092  0.47003740    -0.08900
C205        C  0.80580202  0.16317601  0.47167789    -0.16600
C206        C  0.80747639  0.19785639  0.49677448     0.25500
C207        C  0.84381405  0.19661642  0.52029446    -0.18300
C208        C  0.87839468  0.16089114  0.51869947    -0.07200
C209        C  0.77200513  0.23477062  0.49827657    -0.13600
C210        C  0.74206974  0.26551626  0.49906628    -0.13400
C211        C  0.70582282  0.30172340  0.49932447     0.25400
C212        C  0.70458769  0.33707223  0.47458753    -0.18800
C213        C  0.66859835  0.37144644  0.47423200    -0.07200
C214        C  0.63317082  0.37072650  0.49857027    -0.03300
C215        C  0.63501346  0.33528570  0.52352002    -0.08600
C216        C  0.67114207  0.30108939  0.52389277    -0.16300
H217        H  0.83882415  0.10094405  0.45044550     0.11900
H218        H  0.77784066  0.16381854  0.45335693     0.11200
H219        H  0.84542296  0.22324799  0.53981968     0.11100
H220        H  0.90629360  0.16025582  0.53705875     0.11600
H221        H  0.73126719  0.33787676  0.45543970     0.11700
H222        H  0.66826154  0.39824990  0.45471972     0.11700
H223        H  0.60849949  0.33390452  0.54274400     0.11800
H224        H  0.67178701  0.27391473  0.54317984     0.10600
C225        C  0.12155901  0.12572274  0.49288945    -0.03200
C226        C  0.12202544  0.16068895  0.51793198    -0.08900
C227        C  0.15755151  0.19550426  0.51876935    -0.16600
C228        C  0.19287360  0.19564195  0.49460323     0.25500
C229        C  0.19252381  0.16085353  0.46955792    -0.18300
C230        C  0.15705056  0.12597875  0.46872463    -0.07200
C231        C  0.22942809  0.23147404  0.49550127    -0.13600
C232        C  0.25996358  0.26160003  0.49608833    -0.13400
C233        C  0.29633129  0.29765176  0.49631287     0.25400
C234        C  0.29929456  0.33091521  0.47033509    -0.18800
C235        C  0.33477572  0.36577809  0.47031096    -0.07200
C236        C  0.36801144  0.36759427  0.49621002    -0.03300
C237        C  0.36471492  0.33402897  0.52225702    -0.08600
C238        C  0.32897883  0.29938248  0.52233249    -0.16300
H239        H  0.09499012  0.16081101  0.53682417     0.11900
H240        H  0.15751558  0.22224536  0.53825303     0.11200
H241        H  0.21967716  0.16065199  0.45073883     0.11100
H242        H  0.15716301  0.09919607  0.44927602     0.11600
H243        H  0.27420069  0.32987869  0.45007148     0.11700
H244        H  0.33639427  0.39106622  0.44989284     0.11700
H245        H  0.38955192  0.33472890  0.54266450     0.11800
H246        H  0.32692708  0.27384946  0.54260291     0.10600
C247        C  0.12074046  0.87475617  0.99534111    -0.03200
C248        C  0.15754710  0.87731366  0.97220967    -0.08900
C249        C  0.19288010  0.84231199  0.97203586    -0.16600
C250        C  0.19164990  0.80438672  0.99489895     0.25500
C251        C  0.15498460  0.80155694  0.01796633    -0.18300
C252        C  0.11973802  0.83666086  0.01826335    -0.07200
C253        C  0.22819174  0.76859755  0.99483926    -0.13600
C254        C  0.25895319  0.73874984  0.99494977    -0.13400
C255        C  0.29561763  0.70309731  0.99536902     0.25400
C256        C  0.29177335  0.66295223  0.01613076    -0.18800
C257        C  0.32735030  0.62823812  0.01664446    -0.07200
C258        C  0.36730343  0.63322808  0.99632415    -0.03300
C259        C  0.37085351  0.67380083  0.97554308    -0.08600
C260        C  0.33520391  0.70850468  0.97510650    -0.16300
H261        H  0.15881452  0.90642205  0.95434447     0.11900
H262        H  0.22112755  0.84482122  0.95410753     0.11200
H263        H  0.15377156  0.77237628  0.03578873     0.11100
H264        H  0.09172521  0.83427272  0.03636862     0.11600
H265        H  0.26125866  0.65846462  0.03192024     0.11700
H266        H  0.32345578  0.59744498  0.03289155     0.11700
H267        H  0.40110935  0.67873596  0.95960073     0.11800
H268        H  0.33849624  0.73951161  0.95895800     0.10600
C269        C  0.62968918  0.63203672  0.99731822    -0.03200
C270        C  0.62328296  0.67613373  0.98069071    -0.08900
C271        C  0.65877533  0.71099593  0.98092065    -0.16600
C272        C  0.70120055  0.70221480  0.99759330     0.25500
C273        C  0.70791499  0.65852334  0.01425282    -0.18300
C274        C  0.67236953  0.62367056  0.01420370    -0.07200
C275        C  0.73792377  0.73790950  0.99734871    -0.13600
C276        C  0.76854918  0.76795595  0.99687001    -0.13400
C277        C  0.80495375  0.80397818  0.99626756     0.25400
C278        C  0.84161096  0.80241320  0.01952789    -0.18800
C279        C  0.87675378  0.83763864  0.01917228    -0.07200
C280        C  0.87565152  0.87467101  0.99544134    -0.03300
C281        C  0.83887041  0.87600829  0.97210851    -0.08600
C282        C  0.80366244  0.84082363  0.97254861    -0.16300
H283        H  0.59079272  0.68378445  0.96757471     0.11900
H284        H  0.65319984  0.74471724  0.96797114     0.11200
H285        H  0.74065662  0.65134853  0.02721435     0.11100
H286        H  0.67845419  0.59006939  0.02715535     0.11600
H287        H  0.84291573  0.77409776  0.03800048     0.11700
H288        H  0.90475753  0.83619473  0.03743119     0.11700
H289        H  0.83751837  0.90429706  0.95362738     0.11800
H290        H  0.77544636  0.84237011  0.95444574     0.10600
C291        C  0.87587049  0.12471232  0.99756657    -0.03200
C292        C  0.87470053  0.15942196  0.02277034    -0.08900
C293        C  0.83954811  0.19467398  0.02288318    -0.16600
C294        C  0.80533374  0.19552270  0.99780978     0.25500
C295        C  0.80638101  0.16094520  0.97263992    -0.18300
C296        C  0.84146357  0.12565041  0.97252975    -0.07200
C297        C  0.76909841  0.23175656  0.99792108    -0.13600
C298        C  0.73857784  0.26194053  0.99790680    -0.13400
C299        C  0.70194884  0.29777625  0.99778397     0.25400
C300        C  0.66014245  0.28966136  0.98022090    -0.18800
C301        C  0.62451647  0.32440485  0.98004929    -0.07200
C302        C  0.63016467  0.36776534  0.99758026    -0.03300
C303        C  0.67235008  0.37556415  0.01518491    -0.08600
C304        C  0.70799784  0.34080420  0.01522238    -0.16300
H305        H  0.90095240  0.15907499  0.04229591     0.11900
H306        H  0.83903712  0.22122346  0.04248643     0.11200
H307        H  0.78008690  0.16126420  0.95313317     0.11100
H308        H  0.84195672  0.09913563  0.95291170     0.11600
H309        H  0.65507874  0.25647930  0.96663659     0.11700
H310        H  0.59249986  0.31720795  0.96627722     0.11700
H311        H  0.67790913  0.40857988  0.02883196     0.11800
H312        H  0.74025301  0.34747831  0.02887461     0.10600
C313        C  0.36616316  0.36792069  0.99726659    -0.03200
C314        C  0.36746765  0.32939645  0.97471564    -0.08900
C315        C  0.33182108  0.29467583  0.97465854    -0.16600
C316        C  0.29448849  0.29793741  0.99712144     0.25500
C317        C  0.29284637  0.33607884  0.01962932    -0.18300
C318        C  0.32838607  0.37087957  0.01971342    -0.07200
C319        C  0.25796311  0.26206751  0.99719246    -0.13600
C320        C  0.22747522  0.23189044  0.99739594    -0.13400
C321        C  0.19138073  0.19556839  0.99759917     0.25400
C322        C  0.15579798  0.19665284  0.02156557    -0.18800
C323        C  0.12082614  0.16122467  0.02177875    -0.07200
C324        C  0.12107564  0.12450803  0.99792179    -0.03300
C325        C  0.15690781  0.12355375  0.97400934    -0.08600
C326        C  0.19190051  0.15892270  0.97386710    -0.16300
H327        H  0.39596236  0.32608755  0.95707659     0.11900
H328        H  0.33340931  0.26526917  0.95712483     0.11200
H329        H  0.26410268  0.33891175  0.03713452     0.11100
H330        H  0.32628736  0.40002122  0.03740406     0.11600
H331        H  0.15512389  0.22481429  0.04006957     0.11700
H332        H  0.09351891  0.16238830  0.04045855     0.11700
H333        H  0.15755590  0.09553888  0.95540937     0.11800
H334        H  0.21929416  0.15774288  0.95524003     0.10600
loop_ 
_geom_bond_atom_site_label_1 
_geom_bond_atom_site_label_2 
_geom_bond_distance 
_geom_bond_site_symmetry_2 
_ccdc_geom_bond_type 
N1            C6   1.353   1_556  A
N1            C5   1.353   1_566  A
N1           H33   1.039   1_565  S
N2            C9   1.351   1_655  A
N2           C10   1.351       .  A
N3            C8   1.353   1_556  A
N3            C7   1.353   1_566  A
N3           H34   1.039   1_565  S
N4           C11   1.351   1_655  A
N4           C12   1.351       .  A
C5           C13   1.387       .  A
C5           C21   1.414   1_554  A
C6           C22   1.415   1_554  A
C6           C14   1.387       .  A
C7           C15   1.387       .  A
C7           C24   1.414   1_554  A
C8           C23   1.415   1_554  A
C8           C16   1.387       .  A
C9           C21   1.412       .  A
C9           C17   1.386       .  A
C10          C24   1.411       .  A
C10          C18   1.386       .  A
C11          C19   1.386       .  A
C11          C22   1.413       .  A
C12          C20   1.386       .  A
C12          C23   1.413       .  A
C13          C14   1.375   1_545  A
C13          H25   1.082       .  S
C14          H26   1.082       .  S
C15          C16   1.375   1_545  A
C15          H27   1.082       .  S
C16          H28   1.082       .  S
C17          C18   1.372   1_455  A
C17          H29   1.082       .  S
C18          H30   1.082       .  S
C19          C20   1.372   1_455  A
C19          H31   1.082       .  S
C20          H32   1.082       .  S
C21         C324   1.486       .  S
C22         C247   1.486       .  S
C23         C280   1.486       .  S
C24         C291   1.484       .  S
N35          C40   1.353       .  A
N35          C39   1.353   1_545  A
N35          H67   1.039       .  S
N36          C43   1.351       .  A
N36          C44   1.351   1_655  A
N37          C42   1.353       .  A
N37          C41   1.353   1_545  A
N37          H68   1.039       .  S
N38          C45   1.351       .  A
N38          C46   1.351   1_655  A
C39          C47   1.387       .  A
C39          C55   1.414       .  A
C40          C56   1.415       .  A
C40          C48   1.387       .  A
C41          C49   1.387       .  A
C41          C58   1.414       .  A
C42          C57   1.413       .  A
C42          C50   1.387       .  A
C43          C55   1.412       .  A
C43          C51   1.386       .  A
C44          C58   1.412       .  A
C44          C52   1.386       .  A
C45          C53   1.386       .  A
C45          C56   1.412       .  A
C46          C54   1.386       .  A
C46          C57   1.411       .  A
C47          C48   1.375   1_565  A
C47          H59   1.082       .  S
C48          H60   1.082       .  S
C49          C50   1.375   1_565  A
C49          H61   1.082       .  S
C50          H62   1.082       .  S
C51          C52   1.373   1_655  A
C51          H63   1.082       .  S
C52          H64   1.082       .  S
C53          C54   1.372   1_655  A
C53          H65   1.082       .  S
C54          H66   1.082       .  S
C55         C192   1.485       .  S
C56         C203   1.485       .  S
C57         C225   1.484       .  S
C58         C159   1.485       .  S
O69          C85   1.276   1_554  A
O69         Zn75   2.024       .  S
C70         C137   1.482       .  S
C70          O86   1.276       .  A
C70          O83   1.274       .  A
O71          C84   1.275       .  A
O71         Cd78   2.066       .  S
O72          C90   1.274   1_554  A
O72         Cd81   2.065       .  S
O73          C87   1.275       .  A
O73         Cd77   2.069       .  S
O74          C85   1.275       .  A
O74         Cd77   2.065       .  S
Zn75         O86   2.028       .  S
Zn75         O88   2.026       .  S
Zn75         O80   1.947   1_554  S
O76          C87   1.274   1_554  A
O76         Cd81   2.064       .  S
Cd77         O79   2.069       .  S
Cd77         O80   2.000       .  S
Cd78         O82   2.068       .  S
Cd78         O91   2.071       .  S
Cd78         O80   1.998       .  S
O79          C89   1.275       .  A
O80         Cd81   1.997   1_556  S
Cd81         O83   2.061       .  S
O82          C89   1.275       .  A
C84         C302   1.483       .  S
C84          O88   1.276   1_556  A
C85         C269   1.481       .  S
C87         C258   1.481       .  S
C89         C126   1.481       .  S
C90         C313   1.481       .  S
C90          O91   1.275       .  A
O92         C108   1.276       .  A
O92         Zn98   2.026       .  S
C93         C181   1.483       .  S
C93         O109   1.275       .  A
C93         O106   1.275       .  A
O94         C107   1.275       .  A
O94        Cd101   2.069       .  S
O95         C113   1.275       .  A
O95        Cd104   2.068       .  S
O96         C110   1.275       .  A
O96        Cd100   2.070       .  S
O97         C108   1.274       .  A
O97        Cd100   2.061       .  S
Zn98        O109   2.022       .  S
Zn98        O111   2.025       .  S
Zn98        O103   1.948       .  S
O99         C110   1.276       .  A
O99        Cd104   2.075       .  S
Cd100       O102   2.067       .  S
Cd100       O103   1.997       .  S
Cd101       O105   2.072       .  S
Cd101       O114   2.065       .  S
Cd101       O103   2.000       .  S
O102        C112   1.275       .  A
O103       Cd104   2.000       .  S
Cd104       O106   2.069       .  S
O105        C112   1.275       .  A
C107        C214   1.482       .  S
C107        O111   1.275       .  A
C108        C148   1.481       .  S
C110        C170   1.482       .  S
C112        C236   1.480       .  S
C113        C115   1.479       .  S
C113        O114   1.274       .  A
C115        C116   1.407       .  A
C115        C120   1.407       .  A
C116        C117   1.398       .  A
C116        H129   1.083       .  S
C117        C118   1.399       .  A
C117        H130   1.084       .  S
C118        C119   1.399       .  A
C118        C121   1.438       .  S
C119        C120   1.398       .  A
C119        H131   1.084       .  S
C120        H132   1.083       .  S
C121        C122   1.205       .  T
C122        C123   1.438       .  S
C123        C124   1.399       .  A
C123        C128   1.399       .  A
C124        C125   1.398       .  A
C124        H133   1.084       .  S
C125        C126   1.407       .  A
C125        H134   1.083       .  S
C126        C127   1.408       .  A
C127        C128   1.398       .  A
C127        H135   1.083       .  S
C128        H136   1.084       .  S
C137        C138   1.408       .  A
C137        C142   1.407       .  A
C138        C139   1.398       .  A
C138        H151   1.083       .  S
C139        C140   1.399       .  A
C139        H152   1.084       .  S
C140        C141   1.399       .  A
C140        C143   1.438       .  S
C141        C142   1.398       .  A
C141        H153   1.083       .  S
C142        H154   1.083       .  S
C143        C144   1.205       .  T
C144        C145   1.438       .  S
C145        C146   1.400       .  A
C145        C150   1.399       .  A
C146        C147   1.399       .  A
C146        H155   1.083       .  S
C147        C148   1.407       .  A
C147        H156   1.083       .  S
C148        C149   1.408       .  A
C149        C150   1.397       .  A
C149        H157   1.083       .  S
C150        H158   1.084       .  S
C159        C160   1.404       .  A
C159        C164   1.405       .  A
C160        C161   1.398       .  A
C160        H173   1.083       .  S
C161        C162   1.401       .  A
C161        H174   1.083       .  S
C162        C163   1.401       .  A
C162        C165   1.440       .  S
C163        C164   1.399       .  A
C163        H175   1.083       .  S
C164        H176   1.083       .  S
C165        C166   1.206       .  T
C166        C167   1.440       .  S
C167        C168   1.399       .  A
C167        C172   1.400       .  A
C168        C169   1.398       .  A
C168        H177   1.084       .  S
C169        C170   1.407       .  A
C169        H178   1.083       .  S
C170        C171   1.408       .  A
C171        C172   1.399       .  A
C171        H179   1.083       .  S
C172        H180   1.083       .  S
C181        C182   1.408       .  A
C181        C186   1.408       .  A
C182        C183   1.398       .  A
C182        H195   1.083       .  S
C183        C184   1.399       .  A
C183        H196   1.083       .  S
C184        C185   1.400       .  A
C184        C187   1.440       .  S
C185        C186   1.399       .  A
C185        H197   1.083       .  S
C186        H198   1.083       .  S
C187        C188   1.206       .  T
C188        C189   1.440       .  S
C189        C190   1.401       .  A
C189        C194   1.401       .  A
C190        C191   1.399       .  A
C190        H199   1.083       .  S
C191        C192   1.404       .  A
C191        H200   1.083       .  S
C192        C193   1.404       .  A
C193        C194   1.398       .  A
C193        H201   1.083       .  S
C194        H202   1.083       .  S
C203        C204   1.404       .  A
C203        C208   1.405       .  A
C204        C205   1.398       .  A
C204        H217   1.083       .  S
C205        C206   1.401       .  A
C205        H218   1.083       .  S
C206        C207   1.400       .  A
C206        C209   1.439       .  S
C207        C208   1.398       .  A
C207        H219   1.083       .  S
C208        H220   1.083       .  S
C209        C210   1.206       .  T
C210        C211   1.439       .  S
C211        C212   1.400       .  A
C211        C216   1.399       .  A
C212        C213   1.399       .  A
C212        H221   1.084       .  S
C213        C214   1.408       .  A
C213        H222   1.083       .  S
C214        C215   1.408       .  A
C215        C216   1.398       .  A
C215        H223   1.083       .  S
C216        H224   1.084       .  S
C225        C226   1.404       .  A
C225        C230   1.404       .  A
C226        C227   1.398       .  A
C226        H239   1.083       .  S
C227        C228   1.400       .  A
C227        H240   1.083       .  S
C228        C229   1.401       .  A
C228        C231   1.439       .  S
C229        C230   1.398       .  A
C229        H241   1.083       .  S
C230        H242   1.083       .  S
C231        C232   1.205       .  T
C232        C233   1.439       .  S
C233        C234   1.399       .  A
C233        C238   1.400       .  A
C234        C235   1.398       .  A
C234        H243   1.084       .  S
C235        C236   1.407       .  A
C235        H244   1.083       .  S
C236        C237   1.407       .  A
C237        C238   1.399       .  A
C237        H245   1.083       .  S
C238        H246   1.083       .  S
C247        C248   1.404       .  A
C247        C252   1.405   1_556  A
C248        C249   1.397       .  A
C248        H261   1.083       .  S
C249        C250   1.400       .  A
C249        H262   1.083       .  S
C250        C251   1.400   1_556  A
C250        C253   1.437       .  S
C251        C252   1.398       .  A
C251        H263   1.083       .  S
C252        H264   1.083       .  S
C253        C254   1.204       .  T
C254        C255   1.437       .  S
C255        C256   1.398   1_556  A
C255        C260   1.399       .  A
C256        C257   1.397       .  A
C256        H265   1.084       .  S
C257        C258   1.408   1_554  A
C257        H266   1.083       .  S
C258        C259   1.408       .  A
C259        C260   1.398       .  A
C259        H267   1.083       .  S
C260        H268   1.084       .  S
C269        C270   1.408       .  A
C269        C274   1.407   1_556  A
C270        C271   1.398       .  A
C270        H283   1.083       .  S
C271        C272   1.399       .  A
C271        H284   1.084       .  S
C272        C273   1.400   1_556  A
C272        C275   1.439       .  S
C273        C274   1.399       .  A
C273        H285   1.083       .  S
C274        H286   1.083       .  S
C275        C276   1.206       .  T
C276        C277   1.439       .  S
C277        C278   1.400   1_556  A
C277        C282   1.401       .  A
C278        C279   1.398       .  A
C278        H287   1.083       .  S
C279        C280   1.405   1_554  A
C279        H288   1.083       .  S
C280        C281   1.405       .  A
C281        C282   1.398       .  A
C281        H289   1.083       .  S
C282        H290   1.083       .  S
C291        C292   1.404   1_556  A
C291        C296   1.404       .  A
C292        C293   1.398       .  A
C292        H305   1.083       .  S
C293        C294   1.401   1_554  A
C293        H306   1.083       .  S
C294        C295   1.401       .  A
C294        C297   1.440       .  S
C295        C296   1.398       .  A
C295        H307   1.083       .  S
C296        H308   1.083       .  S
C297        C298   1.206       .  T
C298        C299   1.440       .  S
C299        C300   1.399       .  A
C299        C304   1.400   1_556  A
C300        C301   1.398       .  A
C300        H309   1.084       .  S
C301        C302   1.408       .  A
C301        H310   1.083       .  S
C302        C303   1.408   1_556  A
C303        C304   1.399       .  A
C303        H311   1.083       .  S
C304        H312   1.083       .  S
C313        C314   1.408       .  A
C313        C318   1.408   1_556  A
C314        C315   1.398       .  A
C314        H327   1.083       .  S
C315        C316   1.399       .  A
C315        H328   1.084       .  S
C316        C317   1.399   1_556  A
C316        C319   1.438       .  S
C317        C318   1.398       .  A
C317        H329   1.084       .  S
C318        H330   1.083       .  S
C319        C320   1.205       .  T
C320        C321   1.438       .  S
C321        C322   1.401   1_556  A
C321        C326   1.400       .  A
C322        C323   1.398       .  A
C322        H331   1.083       .  S
C323        C324   1.405   1_554  A
C323        H332   1.083       .  S
C324        C325   1.404       .  A
C325        C326   1.397       .  A
C325        H333   1.083       .  S
C326        H334   1.083       .  S
