geometry optimzed in LAMMPS
_audit_creation_date              2020-11-30 
_audit_creation_method            'lammps2cif' 
_symmetry_space_group_name_H-M    'P1' 
_symmetry_Int_Tables_number       1 
_symmetry_cell_setting            triclinic 
loop_ 
_symmetry_equiv_pos_as_xyz 
  x,y,z 
_cell_length_a                    21.74432972 
_cell_length_b                    21.78547244852417 
_cell_length_c                    24.581487903597484 
_cell_angle_alpha                 90.1174176015884 
_cell_angle_beta                  89.97989300882755 
_cell_angle_gamma                 94.94686288219583 
loop_ 
_atom_site_label 
_atom_site_type_symbol 
_atom_site_fract_x 
_atom_site_fract_y 
_atom_site_fract_z 
_atom_site_charge 
N1          N  0.00696759  0.43263860  0.05960354    -0.35300
N2          N  0.03346243  0.42296442  0.94649046    -0.55900
N3          N  0.03390922  0.55810866  0.93680904    -0.35300
N4          N  0.99747947  0.56668949  0.04917822    -0.55900
C5          C  0.99828127  0.37065017  0.05359728     0.28300
C6          C  0.98354075  0.44653920  0.10842046     0.28300
C7          C  0.03394262  0.54019376  0.88415781     0.28300
C8          C  0.01535717  0.61592309  0.93807193     0.28300
C9          C  0.04176507  0.36443822  0.96088015     0.36900
C10         C  0.05875594  0.43143863  0.89678772     0.36900
C11         C  0.99959261  0.56126695  0.10390380     0.36900
C12         C  0.00962015  0.62741543  0.03807374     0.36900
C13         C  0.96891966  0.34499891  0.09930783    -0.20600
C14         C  0.95986568  0.39288360  0.13402258    -0.20600
C15         C  0.01548771  0.58726750  0.85156138    -0.20600
C16         C  0.00397955  0.63509140  0.88558729    -0.20600
C17         C  0.07264714  0.33558427  0.92012269    -0.21700
C18         C  0.08329146  0.37810046  0.87933639    -0.21700
C19         C  0.01208977  0.61872047  0.12767209    -0.21700
C20         C  0.01870582  0.66055321  0.08602237    -0.21700
C21         C  0.01931026  0.33637870  0.00948594    -0.17000
C22         C  0.98898434  0.50541395  0.13292826    -0.17000
C23         C  0.01165988  0.65296217  0.98504924    -0.17000
C24         C  0.05314208  0.48384545  0.86438583    -0.17000
H25         H  0.95626047  0.29673028  0.10732460     0.15900
H26         H  0.93917774  0.38861742  0.17404780     0.15900
H27         H  0.01108176  0.58740337  0.80770290     0.15900
H28         H  0.98888895  0.67896560  0.87306696     0.15900
H29         H  0.08587214  0.28883044  0.91962486     0.14200
H30         H  0.10550735  0.37036482  0.84080646     0.14200
H31         H  0.01687844  0.62941948  0.17055161     0.14200
H32         H  0.03032554  0.70953794  0.09079656     0.14200
H33         H  0.03447700  0.46314860  0.03572473     0.27400
H34         H  0.05218821  0.53484541  0.96907442     0.27400
N35         N  0.99395414  0.56542829  0.44962537    -0.35300
N36         N  0.03268901  0.55806389  0.56087577    -0.55900
N37         N  0.02672373  0.42262586  0.55162681    -0.35300
N38         N  0.99519426  0.43048750  0.44016469    -0.55900
C39         C  0.01265440  0.62514161  0.46052035     0.28300
C40         C  0.99869641  0.55762943  0.39527543     0.28300
C41         C  0.05632202  0.43252292  0.59941406     0.28300
C42         C  0.03561813  0.36453191  0.53561802     0.28300
C43         C  0.01778169  0.61708788  0.56023688     0.36900
C44         C  0.03525634  0.54196357  0.61374916     0.36900
C45         C  0.97259611  0.44414881  0.39108617     0.36900
C46         C  0.98663040  0.36859981  0.44522898     0.36900
C47         C  0.02896189  0.65564090  0.41256121    -0.20600
C48         C  0.02019386  0.61302652  0.37135576    -0.20600
C49         C  0.08434862  0.38024267  0.61426323    -0.20600
C50         C  0.07150977  0.33731436  0.57377084    -0.20600
C51         C  0.01123993  0.63867374  0.61274340    -0.21700
C52         C  0.02211109  0.59097373  0.64672725    -0.21700
C53         C  0.94890701  0.39077339  0.36492043    -0.21700
C54         C  0.95759203  0.34280363  0.39941181    -0.21700
C55         C  0.01399486  0.65261218  0.51276110    -0.17000
C56         C  0.98199495  0.50251839  0.36645257    -0.17000
C57         C  0.01000597  0.33514487  0.48844534    -0.17000
C58         C  0.05234854  0.48471233  0.63273759    -0.18400
H59         H  0.04628425  0.70338419  0.40773634     0.15900
H60         H  0.02889814  0.62188773  0.32861153     0.15900
H61         H  0.11038842  0.37345847  0.65096996     0.15900
H62         H  0.08639545  0.29119119  0.57288817     0.15900
H63         H  0.99983295  0.68397254  0.62528096     0.14200
H64         H  0.02071436  0.59243064  0.69071759     0.14200
H65         H  0.92942506  0.38672684  0.32441826     0.14200
H66         H  0.94569444  0.29445322  0.39098290     0.14200
H67         H  0.97384224  0.53327393  0.47702364     0.27400
H68         H  0.99569597  0.45114281  0.53502942     0.27400
Zn69       Zn  0.93172586  0.03564138  0.94493071     1.49700
Zn70       Zn  0.93401751  0.94106248  0.05160070     1.49400
Zn71       Zn  0.03527391  0.94553777  0.94856454     1.49100
Zn72       Zn  0.03034733  0.05121882  0.04883065     1.49500
O73         O  0.98319036  0.99318584  0.99794311    -1.82800
O74         O  0.84177808  0.01756899  0.96858237    -0.73500
O75         O  0.94685194  0.85252515  0.03478478    -0.73300
O76         O  0.02272577  0.95865537  0.86230287    -0.72800
O77         O  0.84448478  0.95356429  0.03937006    -0.73500
O78         O  0.94351563  0.01580400  0.86051923    -0.73100
O79         O  0.01469485  0.85353972  0.96630040    -0.73700
O80         O  0.11999876  0.03916043  0.03692262    -0.73100
O81         O  0.95055094  0.95682439  0.13556513    -0.73800
O82         O  0.12579787  0.96941275  0.97051243    -0.73200
O83         O  0.01420121  0.04119325  0.13405195    -0.73700
O84         O  0.01657216  0.13835822  0.02556806    -0.73600
O85         O  0.95334688  0.12756285  0.95392133    -0.73400
C86         C  0.81480925  0.98514141  0.00646936     0.78400
C87         C  0.97927649  0.82449846  0.00111155     0.78900
C88         C  0.98321721  0.98647403  0.83474519     0.77900
C89         C  0.15130571  0.00639369  0.00618908     0.78200
C90         C  0.98234184  0.99966104  0.16131923     0.79400
C91         C  0.98627437  0.16130865  0.98717872     0.78400
Zn92       Zn  0.03362679  0.94470837  0.54674222     1.49700
Zn93       Zn  0.93308822  0.93835505  0.44331369     1.49400
Zn94       Zn  0.92868251  0.03310333  0.55032201     1.49100
Zn95       Zn  0.02791113  0.04990832  0.44684089     1.49500
O96         O  0.98098349  0.99141655  0.49734785    -1.82800
O97         O  0.01461837  0.85273950  0.52936825    -0.73500
O98         O  0.84294309  0.94932140  0.45541816    -0.73300
O99         O  0.94120706  0.01394493  0.63499667    -0.72800
O100        O  0.94824854  0.85026618  0.45975504    -0.73500
O101        O  0.02185913  0.95868103  0.63290608    -0.73100
O102        O  0.83879913  0.01404766  0.52585977    -0.73700
O103        O  0.01451107  0.13722594  0.47107838    -0.73100
O104        O  0.95009144  0.95455439  0.35929156    -0.73800
O105        O  0.94960630  0.12506734  0.54149136    -0.73200
O106        O  0.01113469  0.04068429  0.36189791    -0.73700
O107        O  0.11760523  0.03616002  0.45678899    -0.73600
O108        O  0.12353824  0.96733615  0.52362903    -0.73400
C109        C  0.98082094  0.82304624  0.49376132     0.78400
C110        C  0.81253885  0.98097450  0.48787463     0.78900
C111        C  0.98191694  0.98583127  0.66062457     0.77900
C112        C  0.98305064  0.15946490  0.50920459     0.78200
C113        C  0.98081175  0.99850430  0.33409576     0.79400
C114        C  0.14886828  0.00296482  0.48704450     0.78400
N115        N  0.55276320  0.99421792  0.04896979    -0.35300
N116        N  0.55404878  0.04003182  0.93844816    -0.55900
N117        N  0.41885501  0.02455177  0.93824660    -0.35300
N118        N  0.41657715  0.98761756  0.04905171    -0.55900
C119        C  0.61339117  0.01323632  0.04243602     0.28300
C120        C  0.54074794  0.99389938  0.10304288     0.28300
C121        C  0.43041162  0.05690026  0.89215992     0.28300
C122        C  0.35777751  0.02468515  0.94832561     0.28300
C123        C  0.61351551  0.02713664  0.94253530     0.36900
C124        C  0.54282147  0.04550997  0.88475586     0.36900
C125        C  0.42657431  0.96618933  0.09940951     0.36900
C126        C  0.35585899  0.97408925  0.03826963     0.36900
C127        C  0.64047073  0.02422755  0.09288754    -0.20600
C128        C  0.59467812  0.01236892  0.13108553    -0.20600
C129        C  0.37632170  0.07853586  0.87299932    -0.20600
C130        C  0.33029174  0.05795437  0.90845088    -0.20600
C131        C  0.64037327  0.02556267  0.89144121    -0.21700
C132        C  0.59548904  0.03708032  0.85477019    -0.21700
C133        C  0.37171383  0.93939046  0.12104641    -0.21700
C134        C  0.32698427  0.94398757  0.08209146    -0.21700
C135        C  0.64476769  0.02002252  0.99194771    -0.17000
C136        C  0.48312065  0.97546085  0.12797899    -0.17000
C137        C  0.32580913  0.99262168  0.99082766    -0.17000
C138        C  0.48571873  0.05829071  0.86234716    -0.17000
H139        H  0.68801916  0.04018549  0.10135202     0.15900
H140        H  0.60059905  0.01706926  0.17464532     0.15900
H141        H  0.37032851  0.10425566  0.83601856     0.15900
H142        H  0.28195377  0.06563774  0.90474493     0.15900
H143        H  0.68722234  0.01645064  0.88149168     0.14200
H144        H  0.60100190  0.03844056  0.81102111     0.14200
H145        H  0.36456361  0.91919757  0.16099038     0.14200
H146        H  0.27859714  0.92835975  0.08613299     0.14200
H147        H  0.52277260  0.97719724  0.01852388     0.27400
H148        H  0.44873641  0.99602524  0.95640643     0.27400
N149        N  0.55019143  0.98910614  0.44200608    -0.35300
N150        N  0.55060077  0.03304366  0.55324773    -0.55900
N151        N  0.41519591  0.01499631  0.55441476    -0.35300
N152        N  0.41363584  0.98159268  0.44203824    -0.55900
C153        C  0.61087668  0.00786941  0.44864395     0.28300
C154        C  0.53835321  0.98849887  0.38792817     0.28300
C155        C  0.42614549  0.04557247  0.60162824     0.28300
C156        C  0.35394896  0.01402211  0.54468253     0.28300
C157        C  0.61084780  0.02294405  0.54864424     0.36900
C158        C  0.53984651  0.03904362  0.60702949     0.36900
C159        C  0.42393618  0.96105391  0.39129058     0.36900
C160        C  0.35291110  0.96747028  0.45258873     0.36900
C161        C  0.63826540  0.01800204  0.39824571    -0.20600
C162        C  0.59255689  0.00627415  0.35998904    -0.20600
C163        C  0.37135418  0.06443745  0.62213418    -0.20600
C164        C  0.32565953  0.04424736  0.58625716    -0.20600
C165        C  0.63852347  0.02365557  0.59945227    -0.21700
C166        C  0.59352874  0.03372222  0.63645039    -0.21700
C167        C  0.36929184  0.93422429  0.36924319    -0.21700
C168        C  0.32438450  0.93792334  0.40824558    -0.21700
C169        C  0.64207273  0.01578442  0.49912771    -0.17000
C170        C  0.48062445  0.97069529  0.36284739    -0.17000
C171        C  0.32250964  0.98429045  0.50056949    -0.17000
C172        C  0.48244339  0.04977264  0.63023590    -0.17000
H173        H  0.68593839  0.03352037  0.38985866     0.15900
H174        H  0.59877884  0.01074474  0.31646121     0.15900
H175        H  0.36477784  0.08864657  0.65991697     0.15900
H176        H  0.27707541  0.05061053  0.59058953     0.15900
H177        H  0.68604693  0.01693735  0.60905153     0.14200
H178        H  0.59968760  0.03607912  0.68010813     0.14200
H179        H  0.36246816  0.91437301  0.32906793     0.14200
H180        H  0.27615156  0.92172346  0.40405764     0.14200
H181        H  0.51992187  0.97265773  0.47236696     0.27400
H182        H  0.44605316  0.98894999  0.53448178     0.27400
C183        C  0.50860233  0.11078269  0.77305079    -0.12100
C184        C  0.48055311  0.06116865  0.80285788     0.10100
C185        C  0.45041368  0.01047386  0.77599730    -0.12100
C186        C  0.44981424  0.00820147  0.71972269    -0.12100
C187        C  0.47916941  0.05670966  0.68965158     0.10100
C188        C  0.50780290  0.10859517  0.71626963    -0.12100
H189        H  0.53224901  0.14994446  0.79370495     0.14100
H190        H  0.42906574  0.97178755  0.79880509     0.14100
H191        H  0.42796192  0.96781503  0.69946130     0.14100
H192        H  0.53075699  0.14614470  0.69314024     0.14100
C193        C  0.51110509  0.92657799  0.21630485    -0.12100
C194        C  0.48057135  0.97109759  0.18820549     0.10100
C195        C  0.44802446  0.01307828  0.21756689    -0.12100
C196        C  0.44689863  0.01150700  0.27421141    -0.12100
C197        C  0.47835793  0.96797668  0.30250691     0.10100
C198        C  0.50993602  0.92496734  0.27324456    -0.12100
H199        H  0.53632282  0.89379510  0.19415708     0.14100
H200        H  0.42432990  0.04775436  0.19648859     0.14100
H201        H  0.42259549  0.04517492  0.29616519     0.14100
H202        H  0.53452085  0.89114202  0.29455296     0.14100
C203        C  0.25429480  0.97264150  0.50547769    -0.15100
C204        C  0.21638873  0.00695131  0.47817254    -0.30300
H205        H  0.23599512  0.94110123  0.53685202     0.13900
H206        H  0.23596950  0.04024622  0.44866662     0.14400
C207        C  0.74488909  0.97862073  0.48027726    -0.15100
C208        C  0.71089784  0.02138431  0.50139043    -0.30300
H209        H  0.72248574  0.94101416  0.45644509     0.13900
H210        H  0.73349172  0.05850371  0.52568134     0.14400
C211        C  0.25774377  0.98030622  0.98509277    -0.15100
C212        C  0.21906881  0.01264678  0.01362178    -0.30300
H213        H  0.24007595  0.94882799  0.95333917     0.13900
H214        H  0.23817481  0.04589187  0.04349290     0.14400
C215        C  0.74717310  0.98342659  0.01336830    -0.15100
C216        C  0.71353201  0.02462266  0.98956167    -0.30300
H217        H  0.72448379  0.94751725  0.03878648     0.13900
H218        H  0.73646111  0.05978316  0.96350269     0.14400
C219        C  0.98338136  0.98520426  0.77316265    -0.12000
C220        C  0.98288743  0.98509321  0.72221455    -0.13500
C221        C  0.98155085  0.00023992  0.27303836    -0.12000
C222        C  0.98218672  0.00073173  0.22239684    -0.13500
C223        C  0.01624076  0.72114378  0.51859953    -0.15100
C224        C  0.97881768  0.75510181  0.49009077    -0.30300
H225        H  0.04759455  0.74351046  0.54840534     0.13900
H226        H  0.94607948  0.73217927  0.46168685     0.14400
C227        C  0.01187391  0.26738137  0.48143628    -0.15100
C228        C  0.98488686  0.22692765  0.51713507    -0.30300
H229        H  0.03169238  0.25079201  0.44417070     0.13900
H230        H  0.96195755  0.24402107  0.55269561     0.14400
C231        C  0.01292756  0.44191737  0.77663832    -0.12100
C232        C  0.05948262  0.47681641  0.80516111     0.10100
C233        C  0.10798656  0.50922308  0.77691386    -0.12100
C234        C  0.10803586  0.50920966  0.72014130    -0.12100
C235        C  0.05949078  0.47688364  0.69175330     0.10100
C236        C  0.01295050  0.44193910  0.72014735    -0.12100
H237        H  0.97511903  0.41708272  0.79820499     0.14100
H238        H  0.14404262  0.53637845  0.79879594     0.14100
H239        H  0.14404865  0.53648241  0.69838464     0.14100
H240        H  0.97506770  0.41723869  0.69850002     0.14100
C241        C  0.03353038  0.48114562  0.22235980    -0.12100
C242        C  0.98728309  0.50745567  0.19293162     0.10100
C243        C  0.93902483  0.53289617  0.22058060    -0.12100
C244        C  0.93698025  0.53160585  0.27738161    -0.12100
C245        C  0.98296150  0.50451610  0.30654390     0.10100
C246        C  0.03129202  0.47954621  0.27882714    -0.12100
H247        H  0.07097663  0.46133382  0.20140861     0.14100
H248        H  0.90293395  0.55303723  0.19816221     0.14100
H249        H  0.89959230  0.55116256  0.29859016     0.14100
H250        H  0.06719308  0.45884518  0.30107797     0.14100
C251        C  0.97519071  0.75638366  0.00441838    -0.15100
C252        C  0.01299523  0.72132000  0.97730959    -0.30300
H253        H  0.94121604  0.73438795  0.03218130     0.13900
H254        H  0.04522823  0.74277657  0.94779526     0.14400
C255        C  0.01844261  0.26828979  0.01576035    -0.15100
C256        C  0.98922726  0.22888272  0.98018368    -0.30300
H257        H  0.03859563  0.25069451  0.05239294     0.13900
H258        H  0.96613301  0.24690375  0.94519398     0.14400
loop_ 
_geom_bond_atom_site_label_1 
_geom_bond_atom_site_label_2 
_geom_bond_distance 
_geom_bond_site_symmetry_2 
_ccdc_geom_bond_type 
N1            C6   1.348   1_455  A
N1            C5   1.355   1_455  A
N1           H33   1.038       .  S
N2            C9   1.351       .  A
N2           C10   1.346       .  A
N3            C8   1.356       .  A
N3            C7   1.351       .  A
N3           H34   1.039       .  S
N4           C11   1.352       .  A
N4           C12   1.355   1_655  A
C5           C13   1.387       .  A
C5           C21   1.413   1_655  A
C6           C22   1.412       .  A
C6           C14   1.388       .  A
C7           C15   1.389       .  A
C7           C24   1.415       .  A
C8           C23   1.414       .  A
C8           C16   1.386       .  A
C9           C21   1.411   1_556  A
C9           C17   1.385       .  A
C10          C24   1.407       .  A
C10          C18   1.387       .  A
C11          C19   1.386   1_655  A
C11          C22   1.413       .  A
C12          C20   1.386       .  A
C12          C23   1.417   1_554  A
C13          C14   1.374       .  A
C13          H25   1.082       .  S
C14          H26   1.083       .  S
C15          C16   1.374       .  A
C15          H27   1.082       .  S
C16          H28   1.082   1_455  S
C17          C18   1.372       .  A
C17          H29   1.082       .  S
C18          H30   1.083       .  S
C19          C20   1.371       .  A
C19          H31   1.082       .  S
C20          H32   1.081       .  S
C21         C255   1.490       .  S
C22         C242   1.476       .  S
C23         C252   1.499       .  S
C24         C232   1.471       .  S
N35          C40   1.351       .  A
N35          C39   1.355   1_655  A
N35          H67   1.041       .  S
N36          C43   1.353       .  A
N36          C44   1.349       .  A
N37          C42   1.354       .  A
N37          C41   1.348       .  A
N37          H68   1.040   1_455  S
N38          C45   1.346       .  A
N38          C46   1.351       .  A
C39          C47   1.385       .  A
C39          C55   1.415       .  A
C40          C56   1.413       .  A
C40          C48   1.388   1_655  A
C41          C49   1.387       .  A
C41          C58   1.409       .  A
C42          C57   1.414       .  A
C42          C50   1.387       .  A
C43          C55   1.408       .  A
C43          C51   1.384       .  A
C44          C58   1.412       .  A
C44          C52   1.388       .  A
C45          C53   1.387       .  A
C45          C56   1.408       .  A
C46          C54   1.386       .  A
C46          C57   1.409   1_655  A
C47          C48   1.375       .  A
C47          H59   1.082       .  S
C48          H60   1.082       .  S
C49          C50   1.376       .  A
C49          H61   1.083       .  S
C50          H62   1.082       .  S
C51          C52   1.371       .  A
C51          H63   1.082   1_455  S
C52          H64   1.082       .  S
C53          C54   1.373       .  A
C53          H65   1.083       .  S
C54          H66   1.082       .  S
C55         C223   1.496       .  S
C56         C245   1.473       .  S
C57         C227   1.490       .  S
C58         C235   1.471       .  S
Zn69         O73   1.998   1_545  S
Zn69         O74   2.046       .  S
Zn69         O78   2.138       .  S
Zn69         O85   2.029       .  S
Zn70         O73   1.992   1_554  S
Zn70         O75   2.015       .  S
Zn70         O77   2.012       .  S
Zn70         O81   2.117       .  S
Zn71         O73   2.007   1_455  S
Zn71         O76   2.161       .  S
Zn71         O79   2.063       .  S
Zn71         O82   2.064       .  S
Zn72         O73   1.996   1_444  S
Zn72         O80   2.011       .  S
Zn72         O83   2.133       .  S
Zn72         O84   2.031       .  S
O74          C86   1.281   1_546  A
O75          C87   1.275       .  A
O76          C88   1.287   1_455  A
O77          C86   1.274       .  A
O78          C88   1.284   1_545  A
O79          C87   1.282   1_456  A
O80          C89   1.275       .  A
O81          C90   1.279       .  A
O82          C89   1.283   1_566  A
O83          C90   1.281   1_445  A
O84          C91   1.278   1_454  A
O85          C91   1.276       .  A
C86         C215   1.478       .  S
C87         C251   1.481       .  S
C88         C219   1.514       .  S
C89         C212   1.479       .  S
C90         C222   1.502   1_565  S
C91         C256   1.478       .  S
Zn92         O96   2.007   1_455  S
Zn92         O97   2.055       .  S
Zn92        O101   2.157       .  S
Zn92        O108   2.055       .  S
Zn93         O96   1.993       .  S
Zn93         O98   2.017       .  S
Zn93        O100   2.017       .  S
Zn93        O104   2.123       .  S
Zn94         O96   1.997   1_545  S
Zn94         O99   2.146       .  S
Zn94        O102   2.053       .  S
Zn94        O105   2.028       .  S
Zn95         O96   1.997   1_445  S
Zn95        O103   2.037       .  S
Zn95        O106   2.126       .  S
Zn95        O107   2.014       .  S
O97         C109   1.281   1_455  A
O98         C110   1.275       .  A
O99         C111   1.285   1_545  A
O100        C109   1.276       .  A
O101        C111   1.286   1_455  A
O102        C110   1.282   1_545  A
O103        C112   1.279   1_455  A
O104        C113   1.280       .  A
O105        C112   1.276       .  A
O106        C113   1.280   1_445  A
O107        C114   1.275       .  A
O108        C114   1.282   1_565  A
C109        C224   1.480       .  S
C110        C207   1.479       .  S
C111        C220   1.514       .  S
C112        C228   1.479       .  S
C113        C221   1.501   1_565  S
C114        C204   1.479       .  S
N115        C120   1.354       .  A
N115        C119   1.357   1_565  A
N115        H147   1.039       .  S
N116        C123   1.351       .  A
N116        C124   1.350       .  A
N117        C122   1.351       .  A
N117        C121   1.347       .  A
N117        H148   1.039   1_545  S
N118        C125   1.348       .  A
N118        C126   1.354       .  A
C119        C127   1.385       .  A
C119        C135   1.418   1_554  A
C120        C136   1.422       .  A
C120        C128   1.389   1_565  A
C121        C129   1.387       .  A
C121        C138   1.406       .  A
C122        C137   1.408   1_545  A
C122        C130   1.386       .  A
C123        C135   1.407       .  A
C123        C131   1.387       .  A
C124        C138   1.408       .  A
C124        C132   1.387       .  A
C125        C133   1.388       .  A
C125        C136   1.415       .  A
C126        C134   1.384       .  A
C126        C137   1.413   1_554  A
C127        C128   1.377       .  A
C127        H139   1.082       .  S
C128        H140   1.082       .  S
C129        C130   1.373       .  A
C129        H141   1.083       .  S
C130        H142   1.082       .  S
C131        C132   1.368       .  A
C131        H143   1.082       .  S
C132        H144   1.082       .  S
C133        C134   1.375       .  A
C133        H145   1.082       .  S
C134        H146   1.082       .  S
C135        C216   1.491       .  S
C136        C194   1.484       .  S
C137        C211   1.488       .  S
C138        C184   1.469       .  S
N149        C154   1.354       .  A
N149        C153   1.357   1_565  A
N149        H181   1.039       .  S
N150        C157   1.352       .  A
N150        C158   1.351       .  A
N151        C156   1.352       .  A
N151        C155   1.348       .  A
N151        H182   1.038   1_545  S
N152        C159   1.350       .  A
N152        C160   1.355       .  A
C153        C161   1.384       .  A
C153        C169   1.418       .  A
C154        C170   1.422       .  A
C154        C162   1.390   1_565  A
C155        C163   1.388       .  A
C155        C172   1.408       .  A
C156        C171   1.409   1_545  A
C156        C164   1.387       .  A
C157        C169   1.408       .  A
C157        C165   1.386       .  A
C158        C172   1.410       .  A
C158        C166   1.387       .  A
C159        C167   1.388       .  A
C159        C170   1.417       .  A
C160        C168   1.384       .  A
C160        C171   1.415       .  A
C161        C162   1.376       .  A
C161        H173   1.082       .  S
C162        H174   1.082       .  S
C163        C164   1.372       .  A
C163        H175   1.083       .  S
C164        H176   1.082       .  S
C165        C166   1.367       .  A
C165        H177   1.082       .  S
C166        H178   1.082       .  S
C167        C168   1.375       .  A
C167        H179   1.082       .  S
C168        H180   1.082       .  S
C169        C208   1.492       .  S
C170        C197   1.485       .  S
C171        C203   1.488       .  S
C172        C187   1.470       .  S
C183        C184   1.402       .  A
C183        C188   1.397       .  A
C183        H189   1.083       .  S
C184        C185   1.399       .  A
C185        C186   1.384       .  A
C185        H190   1.084   1_545  S
C186        C187   1.399       .  A
C186        H191   1.084   1_545  S
C187        C188   1.403       .  A
C188        H192   1.083       .  S
C193        C194   1.405       .  A
C193        C198   1.400       .  A
C193        H199   1.083       .  S
C194        C195   1.402   1_565  A
C195        C196   1.393       .  A
C195        H200   1.083       .  S
C196        C197   1.402   1_545  A
C196        H201   1.083       .  S
C197        C198   1.405       .  A
C198        H202   1.083       .  S
C203        C204   1.341   1_565  D
C203        H205   1.086       .  S
C204        H206   1.087       .  S
C207        C208   1.342   1_565  D
C207        H209   1.087       .  S
C208        H210   1.087       .  S
C211        C212   1.340   1_566  D
C211        H213   1.086       .  S
C212        H214   1.087       .  S
C215        C216   1.341   1_564  D
C215        H217   1.087       .  S
C216        H218   1.087       .  S
C219        C220   1.252       .  T
C221        C222   1.245       .  T
C223        C224   1.344   1_455  D
C223        H225   1.087       .  S
C224        H226   1.087       .  S
C227        C228   1.343   1_455  D
C227        H229   1.087       .  S
C228        H230   1.087       .  S
C231        C232   1.400       .  A
C231        C236   1.389       .  A
C231        H237   1.083   1_455  S
C232        C233   1.402       .  A
C233        C234   1.396       .  A
C233        H238   1.083       .  S
C234        C235   1.403       .  A
C234        H239   1.083       .  S
C235        C236   1.400       .  A
C236        H240   1.083   1_455  S
C241        C242   1.402   1_455  A
C241        C246   1.389       .  A
C241        H247   1.083       .  S
C242        C243   1.403       .  A
C243        C244   1.397       .  A
C243        H248   1.083       .  S
C244        C245   1.402       .  A
C244        H249   1.083       .  S
C245        C246   1.400   1_655  A
C246        H250   1.084       .  S
C251        C252   1.345   1_654  D
C251        H253   1.087       .  S
C252        H254   1.087       .  S
C255        C256   1.345   1_454  D
C255        H257   1.087       .  S
C256        H258   1.087       .  S
