geometry optimzed in LAMMPS
_audit_creation_date              2020-11-30 
_audit_creation_method            'lammps2cif' 
_symmetry_space_group_name_H-M    'P1' 
_symmetry_Int_Tables_number       1 
_symmetry_cell_setting            triclinic 
loop_ 
_symmetry_equiv_pos_as_xyz 
  x,y,z 
_cell_length_a                    27.38215957 
_cell_length_b                    27.04353860504406 
_cell_length_c                    27.49406543054989 
_cell_angle_alpha                 89.9740694037802 
_cell_angle_beta                  90.08204995645433 
_cell_angle_gamma                 89.79805114043951 
loop_ 
_atom_site_label 
_atom_site_type_symbol 
_atom_site_fract_x 
_atom_site_fract_y 
_atom_site_fract_z 
_atom_site_charge 
N1          N  0.42969694  0.72334842  0.08538385    -0.25600
N2          N  0.40742664  0.68305629  0.10135193    -0.33500
C3          C  0.35972510  0.69301061  0.10703483     0.02700
C4          C  0.35080678  0.74123740  0.09306119     0.08700
C5          C  0.39596683  0.75954142  0.07913615    -0.04400
H6          H  0.33278373  0.66609793  0.11818278     0.09400
H7          H  0.40372724  0.79622573  0.06556936     0.10600
Cu8        Cu  0.43914978  0.61312581  0.11005779     0.44200
Cu9        Cu  0.50555261  0.72714342  0.07588740     0.42000
Cu10       Cu  0.56566592  0.61022109  0.11380832     0.43900
N11         N  0.47716694  0.54600510  0.11338922    -0.33000
N12         N  0.52526672  0.54510189  0.11637253    -0.27300
C13         C  0.54068901  0.49767454  0.11711359    -0.03400
C14         C  0.50026726  0.46703110  0.11384049     0.08900
C15         C  0.46057130  0.49909487  0.11145208     0.02600
H16         H  0.57859988  0.48634588  0.11816516     0.10300
H17         H  0.42251904  0.48905995  0.10807039     0.09400
N18         N  0.60125868  0.67691642  0.10059905    -0.34500
N19         N  0.58126478  0.71812991  0.08353279    -0.26600
C20         C  0.61718925  0.75130037  0.07494208    -0.01900
C21         C  0.66140892  0.72995619  0.08832344     0.06700
C22         C  0.64964388  0.68319601  0.10441058     0.04800
H23         H  0.61151317  0.78803886  0.06035808     0.09900
H24         H  0.67495858  0.65472124  0.11613249     0.08800
N25         N  0.43258004  0.15850520  0.06027473    -0.25600
N26         N  0.41143273  0.20239977  0.05563580    -0.33500
C27         C  0.36587161  0.19614211  0.03884123     0.02700
C28         C  0.35727483  0.14621525  0.03348701     0.08700
C29         C  0.40028346  0.12310407  0.04738189    -0.04400
H30         H  0.34040060  0.22596646  0.03159426     0.09400
H31         H  0.40789985  0.08381700  0.04721914     0.10600
Cu32       Cu  0.44225813  0.27039491  0.07389407     0.44200
Cu33       Cu  0.50495447  0.14986114  0.08236687     0.42000
Cu34       Cu  0.55983234  0.26636185  0.12537159     0.43900
N35         N  0.47794600  0.33452737  0.09635205    -0.33000
N36         N  0.52254247  0.33313586  0.11467925    -0.27300
C37         C  0.53735519  0.37978545  0.12369914    -0.03400
C38         C  0.49994951  0.41216681  0.11109424     0.08900
C39         C  0.46277650  0.38200581  0.09402436     0.02600
H40         H  0.57270295  0.38943467  0.13842110     0.10300
H41         H  0.42771267  0.39378258  0.07993434     0.09400
N42         N  0.59439044  0.19727294  0.12626848    -0.34500
N43         N  0.57645039  0.15596952  0.10765663    -0.26600
C44         C  0.61213755  0.12136270  0.10643382    -0.01900
C45         C  0.65406173  0.14165590  0.12627810     0.06700
C46         C  0.64121025  0.18947177  0.13869541     0.04800
H47         H  0.60836856  0.08501552  0.09045416     0.09900
H48         H  0.66554219  0.21801394  0.15176084     0.08800
N49         N  0.77755403  0.97227170  0.46706456    -0.25600
N50         N  0.73456908  0.97875449  0.44583286    -0.33500
C51         C  0.74165796  0.98611076  0.39807814     0.02700
C52         C  0.79112707  0.98331276  0.38853692     0.08700
C53         C  0.81295308  0.97412797  0.43303340    -0.04400
H54         H  0.71258903  0.99038121  0.37161548     0.09400
H55         H  0.85144835  0.96855690  0.44010657     0.10600
Cu56       Cu  0.66700535  0.97232773  0.48038250     0.44200
Cu57       Cu  0.78600197  0.96201847  0.54134219     0.42000
Cu58       Cu  0.67095950  0.95081042  0.60754746     0.43900
N59         N  0.60407640  0.96192495  0.52187847    -0.33000
N60         N  0.60564689  0.95352996  0.56918913    -0.27300
C61         C  0.55972572  0.94914986  0.58622507    -0.03400
C62         C  0.52757472  0.95522058  0.54772050     0.08900
C63         C  0.55703975  0.96317765  0.50746999     0.02600
H64         H  0.55046887  0.94293289  0.62395660     0.10300
H65         H  0.54518092  0.96979771  0.47050483     0.09400
N66         N  0.73939624  0.95427745  0.63995586    -0.34500
N67         N  0.78131458  0.95895586  0.61654893    -0.26600
C68         C  0.81732710  0.96653145  0.64921797    -0.01900
C69         C  0.79696739  0.96566993  0.69518173     0.06700
C70         C  0.74767246  0.95839476  0.68784478     0.04800
H71         H  0.85465973  0.97548852  0.63999569     0.09900
H72         H  0.71930484  0.95979480  0.71518746     0.08800
N73         N  0.22329797  0.96217888  0.46997135    -0.25600
N74         N  0.26593190  0.97562932  0.45173843    -0.33500
C75         C  0.26087814  0.98389820  0.40393653     0.02700
C76         C  0.21322679  0.97430543  0.39075354     0.08700
C77         C  0.19018025  0.96020036  0.43345532    -0.04400
H78         H  0.29061403  0.99349475  0.37981425     0.09400
H79         H  0.15253536  0.94902049  0.43762384     0.10600
Cu80       Cu  0.33183039  0.97512895  0.48903771     0.44200
Cu81       Cu  0.21417632  0.94744329  0.54399031     0.42000
Cu82       Cu  0.33148500  0.93265289  0.61034929     0.43900
N83         N  0.39593810  0.96278624  0.52744849    -0.33000
N84         N  0.39639553  0.94697875  0.57290004    -0.27300
C85         C  0.44324578  0.94207789  0.58757682    -0.03400
C86         C  0.47354101  0.95501291  0.54915153     0.08900
C87         C  0.44215388  0.96785512  0.51169978     0.02600
H88         H  0.45440018  0.92958611  0.62328006     0.10300
H89         H  0.45211052  0.97999846  0.47558205     0.09400
N90         N  0.26192075  0.92603549  0.64118600    -0.34500
N91         N  0.21979771  0.93411480  0.61866662    -0.26600
C92         C  0.18313223  0.93100503  0.65143944    -0.01900
C93         C  0.20324614  0.91925157  0.69623316     0.06700
C94         C  0.25296381  0.91625610  0.68821495     0.04800
H95         H  0.14485029  0.93635184  0.64314090     0.09900
H96         H  0.28092193  0.90910973  0.71521975     0.08800
O97         O  0.78237177  0.86442769  0.04525316    -0.71300
O98         O  0.77894827  0.01158023  0.06264662    -0.72300
O99         O  0.77902044  0.94711396  0.98264708    -0.60900
O100        O  0.78402436  0.92840844  0.12458007    -0.69300
O101        O  0.86474131  0.93112319  0.12370404    -0.68800
O102        O  0.85960789  0.94772039  0.97785450    -0.60100
O103        O  0.85935716  0.01494311  0.05848558    -0.72600
O104        O  0.86298319  0.86422883  0.04329191    -0.71400
Cu105      Cu  0.77858767  0.93786551  0.05391589     1.04600
Cu106      Cu  0.86474589  0.93963216  0.05083864     1.04300
C107        C  0.82254376  0.84055278  0.04202876     0.94900
C108        C  0.81807992  0.03710127  0.06227976     0.94100
C109        C  0.81790497  0.95051492  0.95733704     0.86200
C110        C  0.82480256  0.92593385  0.14687735     0.92500
N111        N  0.85577886  0.92917912  0.23456154    -0.01800
C112        C  0.83114614  0.92333051  0.27726121     0.00800
C113        C  0.78513982  0.90433611  0.26932493    -0.22100
C114        C  0.77990121  0.89994097  0.22033810    -0.22300
C115        C  0.82293311  0.91619998  0.19950266     0.00700
H116        H  0.75685589  0.89854534  0.29619324     0.14500
H117        H  0.74676712  0.88910594  0.20169357     0.14500
N118        N  0.81440214  0.09072612  0.06351895    -0.01800
C119        C  0.77193665  0.11692493  0.06882622     0.00800
C120        C  0.77905452  0.16657541  0.06015485    -0.22100
C121        C  0.82730873  0.17230573  0.05057080    -0.22300
C122        C  0.84888592  0.12599996  0.05358932     0.00700
H123        H  0.75212030  0.19587255  0.06260547     0.14500
H124        H  0.84521825  0.20732277  0.04410679     0.14500
O125        O  0.07047055  0.94633250  0.90376739    -0.71300
O126        O  0.92077911  0.94387716  0.90818169    -0.72300
O127        O  0.99620989  0.86956143  0.90359080    -0.60900
O128        O  0.99264459  0.01912375  0.91048033    -0.69300
O129        O  0.98977974  0.02080152  0.83007566    -0.68800
O130        O  0.99428689  0.87513460  0.82343765    -0.60100
O131        O  0.92010224  0.94670218  0.82799845    -0.72600
O132        O  0.06638569  0.95012131  0.82367035    -0.71400
Cu133      Cu  0.99546328  0.94434280  0.90952850     1.04600
Cu134      Cu  0.99288864  0.94811275  0.82380399     1.04300
C135        C  0.09205821  0.94951568  0.86250314     0.94900
C136        C  0.89688385  0.94656969  0.86819529     0.94100
C137        C  0.99426466  0.84881737  0.86197527     0.86200
C138        C  0.98800636  0.04324674  0.87086513     0.92500
N139        N  0.99090100  0.13269693  0.90202728    -0.01800
C140        C  0.98344247  0.17623906  0.87789401     0.00800
C141        C  0.96310853  0.16802113  0.83269362    -0.22100
C142        C  0.95998359  0.11813989  0.82721284    -0.22300
C143        C  0.97814730  0.09694371  0.86936826     0.00700
H144        H  0.95631727  0.19531559  0.80463372     0.14500
H145        H  0.94857862  0.09921944  0.79443064     0.14500
N146        N  0.14482141  0.95515978  0.85875205    -0.01800
C147        C  0.16982676  0.96200693  0.81618439     0.00800
C148        C  0.21788081  0.97414032  0.82484067    -0.22100
C149        C  0.22414752  0.97324758  0.87377350    -0.22300
C150        C  0.17968785  0.96090512  0.89429843     0.00700
H151        H  0.24619768  0.97993521  0.79800387     0.14500
H152        H  0.25844712  0.97931176  0.89246142     0.14500
O153        O  0.14519855  0.86689287  0.03959668    -0.71300
O154        O  0.14144389  0.01904035  0.04869023    -0.72300
O155        O  0.13742833  0.94844607  0.97080984    -0.60900
O156        O  0.14297920  0.93703057  0.11736110    -0.69300
O157        O  0.22364356  0.93820451  0.11401533    -0.68800
O158        O  0.21813724  0.95056366  0.97039136    -0.60100
O159        O  0.22194520  0.01768631  0.04726918    -0.72600
O160        O  0.22556928  0.87143333  0.03731702    -0.71400
Cu161      Cu  0.13859058  0.94280505  0.04429832     1.04600
Cu162      Cu  0.22473917  0.94457326  0.04219391     1.04300
C163        C  0.18704257  0.84532484  0.03760258     0.94900
C164        C  0.18229439  0.04228501  0.04837627     0.94100
C165        C  0.17739961  0.95245673  0.94754318     0.86200
C166        C  0.18425156  0.93423102  0.13858467     0.92500
O167        O  0.00402916  0.86377779  0.18086140    -0.71300
O168        O  0.00374295  0.01289252  0.18811383    -0.72300
O169        O  0.07961442  0.93796916  0.18546750    -0.60900
O170        O  0.92970097  0.93789332  0.18917430    -0.69300
O171        O  0.93360716  0.93567170  0.26933526    -0.68800
O172        O  0.07912254  0.93442134  0.26563428    -0.60100
O173        O  0.00627663  0.00799654  0.26834595    -0.72600
O174        O  0.00507381  0.86205499  0.26130499    -0.71400
Cu175      Cu  0.00439321  0.93850427  0.18281640     1.04600
Cu176      Cu  0.00631039  0.93504051  0.26863505     1.04300
C177        C  0.00313884  0.83941864  0.22047882     0.94900
C178        C  0.00375449  0.03388826  0.22953191     0.94100
C179        C  0.10299302  0.93539505  0.22591764     0.86200
C180        C  0.90816218  0.93574108  0.23055509     0.92500
O181        O  0.99883447  0.16816224  0.97950532    -0.71300
O182        O  0.99820232  0.16378227  0.12495236    -0.72300
O183        O  0.07044654  0.16568478  0.05241567    -0.60900
O184        O  0.92646275  0.16291551  0.05166662    -0.69300
O185        O  0.92592728  0.08120084  0.05222160    -0.68800
O186        O  0.07383180  0.08410453  0.04876257    -0.60100
O187        O  0.00155927  0.08231953  0.12527053    -0.72600
O188        O  0.99793917  0.08660806  0.97597435    -0.71400
Cu189      Cu  0.99852819  0.16761720  0.05225735     1.04600
Cu190      Cu  0.00002121  0.08040125  0.05047588     1.04300
C191        C  0.99739153  0.12864771  0.95429123     0.94900
C192        C  0.99970223  0.12328090  0.14870054     0.94100
C193        C  0.09536318  0.12579226  0.04995918     0.86200
C194        C  0.90287118  0.12224204  0.05218898     0.92500
N195        N  0.99797908  0.12509269  0.20161074    -0.01800
C196        C  0.99151539  0.16718789  0.22844840     0.00800
C197        C  0.98851896  0.15660401  0.27747038    -0.22100
C198        C  0.99319169  0.10693471  0.28191877    -0.22300
C199        C  0.99896490  0.08791083  0.23556968     0.00700
H200        H  0.98492865  0.18258269  0.30721281     0.14500
H201        H  0.99254953  0.08669812  0.31591287     0.14500
N202        N  0.15585068  0.93044291  0.22795020    -0.01800
C203        C  0.18234251  0.92366354  0.26965909     0.00800
C204        C  0.23004055  0.91104265  0.25929915    -0.22100
C205        C  0.23441325  0.91181071  0.21007705    -0.22300
C206        C  0.18920165  0.92463626  0.19128184     0.00700
H207        H  0.25943507  0.90539416  0.28511940     0.14500
H208        H  0.26791917  0.90567369  0.19006882     0.14500
N209        N  0.18515327  0.09596579  0.04762514    -0.01800
C210        C  0.22747673  0.12245614  0.04309230     0.00800
C211        C  0.21800596  0.17251138  0.04067670    -0.22100
C212        C  0.16882220  0.17795851  0.04338367    -0.22300
C213        C  0.14897955  0.13110911  0.04737997     0.00700
H214        H  0.24435518  0.20215299  0.03813880     0.14500
H215        H  0.14944302  0.21292016  0.04241654     0.14500
O216        O  0.08092457  0.71800023  0.03337681    -0.71300
O217        O  0.93616239  0.71806220  0.03650955    -0.72300
O218        O  0.00706695  0.71729750  0.96294935    -0.60900
O219        O  0.01110037  0.71495688  0.10908143    -0.69300
O220        O  0.00909998  0.79647150  0.11286426    -0.68800
O221        O  0.00619697  0.79888123  0.96327309    -0.60100
O222        O  0.93335375  0.79976963  0.03779880    -0.72600
O223        O  0.08115907  0.79968701  0.03584564    -0.71400
Cu224      Cu  0.00882873  0.71452648  0.03577829     1.04600
Cu225      Cu  0.00752202  0.80177424  0.03779982     1.04300
C226        C  0.10419814  0.75882510  0.03259349     0.94900
C227        C  0.91147940  0.75831567  0.03512364     0.94100
C228        C  0.00576953  0.75802478  0.93961034     0.86200
C229        C  0.01085062  0.75442915  0.13457571     0.92500
N230        N  0.00970435  0.75015444  0.18745080    -0.01800
C231        C  0.01056676  0.70645592  0.21261421     0.00800
C232        C  0.99705612  0.71326812  0.26044075    -0.22100
C233        C  0.98995592  0.76251229  0.26651795    -0.22300
C234        C  0.99897782  0.78493875  0.22219105     0.00700
H235        H  0.99672707  0.68565461  0.28898029     0.14500
H236        H  0.98202312  0.78046885  0.30081807     0.14500
N237        N  0.19225346  0.79198874  0.03382118    -0.01800
C238        C  0.23591315  0.76740063  0.03108927     0.00800
C239        C  0.22908504  0.71820753  0.02013375    -0.22100
C240        C  0.17998810  0.71104018  0.01762629    -0.22300
C241        C  0.15779818  0.75611717  0.02701681     0.00700
H242        H  0.25694927  0.68981193  0.01773612     0.14500
H243        H  0.16225483  0.67583297  0.01171335     0.14500
N244        N  0.00101123  0.75686444  0.88700528    -0.01800
C245        C  0.99929584  0.71498199  0.85911550     0.00800
C246        C  0.98524805  0.72597145  0.81211411    -0.22100
C247        C  0.97997898  0.77589183  0.80966046    -0.22300
C248        C  0.99065383  0.79458188  0.85530184     0.00700
H249        H  0.98261939  0.70050571  0.78184997     0.14500
H250        H  0.97139394  0.79667321  0.77705569     0.14500
N251        N  0.84419920  0.95277037  0.86728808    -0.01800
C252        C  0.81750850  0.96144964  0.82619142     0.00800
C253        C  0.76975567  0.97318600  0.83722374    -0.22100
C254        C  0.76602792  0.97148792  0.88650923    -0.22300
C255        C  0.81162857  0.95880137  0.90456551     0.00700
H256        H  0.74019521  0.98011993  0.81190015     0.14500
H257        H  0.73290053  0.97779262  0.90708466     0.14500
N258        N  0.82093379  0.78740940  0.03473098    -0.01800
C259        C  0.77896034  0.76086591  0.02846978     0.00800
C260        C  0.78923465  0.71287884  0.01504164    -0.22100
C261        C  0.83871703  0.70835442  0.01471619    -0.22300
C262        C  0.85790512  0.75377177  0.02776418     0.00700
H263        H  0.76328006  0.68324108  0.00976264     0.14500
H264        H  0.85868616  0.67450427  0.00758018     0.14500
N265        N  0.05159789  0.36343737  0.81679951    -0.25600
N266        N  0.06328366  0.33940726  0.77644764    -0.33500
C267        C  0.06511941  0.29075714  0.78614268     0.02700
C268        C  0.05331093  0.28336357  0.83444975     0.08700
C269        C  0.04458372  0.33024941  0.85289234    -0.04400
H270        H  0.07243024  0.26243380  0.75929262     0.09400
H271        H  0.03385648  0.33956946  0.88962209     0.10600
Cu272      Cu  0.07320692  0.37142813  0.70790861     0.44200
Cu273      Cu  0.04826416  0.44053972  0.82111976     0.42000
Cu274      Cu  0.09365264  0.49917397  0.70901965     0.43900
N275        N  0.08282506  0.41140519  0.64353342    -0.33000
N276        N  0.09234711  0.45922912  0.64403096    -0.27300
C277        C  0.09584958  0.47563649  0.59777116    -0.03400
C278        C  0.08764362  0.43623334  0.56649436     0.08900
C279        C  0.07945648  0.39610751  0.59695441     0.02600
H280        H  0.10190054  0.51375533  0.58766649     0.10300
H281        H  0.07088098  0.35872033  0.58605561     0.09400
N282        N  0.07967314  0.53611296  0.77429032    -0.34500
N283        N  0.05975573  0.51656304  0.81371099    -0.26600
C284        C  0.04938393  0.55329433  0.84555770    -0.01900
C285        C  0.06441571  0.59774408  0.82530178     0.06700
C286        C  0.08350018  0.58511871  0.78050157     0.04800
H287        H  0.03138048  0.54811500  0.88016735     0.09900
H288        H  0.09635512  0.61042617  0.75280637     0.08800
N289        N  0.02166680  0.37091643  0.26609607    -0.25600
N290        N  0.01613319  0.35063138  0.30953500    -0.33500
C291        C  0.99530349  0.30617441  0.30417724     0.02700
C292        C  0.98811063  0.29769795  0.25520678     0.08700
C293        C  0.00543156  0.33927383  0.23180146    -0.04400
H294        H  0.98664337  0.28137880  0.33383849     0.09400
H295        H  0.00513909  0.34657017  0.19311636     0.10600
Cu296      Cu  0.03844560  0.38210386  0.37488191     0.44200
Cu297      Cu  0.04732696  0.44209971  0.25684186     0.42000
Cu298      Cu  0.09424750  0.50034840  0.36908495     0.43900
N299        N  0.06592860  0.41712740  0.43638930    -0.33000
N300        N  0.08662878  0.46117572  0.43489778    -0.27300
C301        C  0.09828102  0.47475975  0.48079480    -0.03400
C302        C  0.08449958  0.43720883  0.51250915     0.08900
C303        C  0.06430469  0.40127585  0.48283033     0.02600
H304        H  0.11483796  0.50964166  0.49047386     0.10300
H305        H  0.04826233  0.36672309  0.49427224     0.09400
N306        N  0.08819666  0.53536527  0.30080606    -0.34500
N307        N  0.06911258  0.51514173  0.26126499    -0.26600
C308        C  0.06304839  0.55023476  0.22685907    -0.01900
C309        C  0.07998293  0.59460306  0.24518644     0.06700
C310        C  0.09586482  0.58361380  0.29187383     0.04800
H311        H  0.04540962  0.54427372  0.19213606     0.09900
H312        H  0.10818832  0.60987307  0.31891605     0.08800
C313        C  0.02045520  0.66553054  0.87028819    -0.14800
C314        C  0.05654060  0.64956574  0.84078638    -0.29900
H315        H  0.99949012  0.63965557  0.89197886     0.14300
H316        H  0.07514654  0.67701519  0.81860382     0.14800
C317        C  0.03499156  0.65956166  0.19857498    -0.14800
C318        C  0.07335178  0.64543629  0.22631085    -0.29900
H319        H  0.01328888  0.63208595  0.17966951     0.14300
H320        H  0.09252290  0.67393200  0.24665329     0.14800
C321        C  0.99356214  0.21922462  0.21156162    -0.14800
C322        C  0.96604402  0.25271712  0.23517380    -0.29900
H323        H  0.02614534  0.23088898  0.19226492     0.14300
H324        H  0.93464219  0.23931689  0.25540650     0.14800
C325        C  0.00902270  0.22354413  0.88686777    -0.14800
C326        C  0.04626592  0.23412550  0.85666554    -0.29900
H327        H  0.98845271  0.25333873  0.90369641     0.14300
H328        H  0.06345771  0.20357240  0.83734091     0.14800
C329        C  0.15447565  0.94903534  0.76604697    -0.14800
C330        C  0.18006814  0.91261869  0.74427979    -0.29900
H331        H  0.13883886  0.97846342  0.74402307     0.14300
H332        H  0.19858670  0.88611371  0.76778826     0.14800
C333        C  0.19599010  0.97494749  0.33987614    -0.14800
C334        C  0.16897101  0.93877136  0.31980890    -0.29900
H335        H  0.21715343  0.99828100  0.31553174     0.14300
H336        H  0.14985336  0.91247717  0.34270014     0.14800
C337        C  0.81757236  0.98429185  0.74082369    -0.14800
C338        C  0.83271470  0.95269186  0.77532110    -0.29900
H339        H  0.80457340  0.02058894  0.75196585     0.14300
H340        H  0.84436453  0.91557133  0.76552456     0.14800
C341        C  0.81223545  0.98267091  0.33930012    -0.14800
C342        C  0.84272501  0.94653869  0.32455106    -0.29900
H343        H  0.79072029  0.00177448  0.31171216     0.14300
H344        H  0.86190099  0.92413573  0.35129031     0.14800
C345        C  0.70504762  0.12374817  0.12523811    -0.14800
C346        C  0.72409968  0.09930282  0.08697534    -0.29900
H347        H  0.73009268  0.14403041  0.14857731     0.14300
H348        H  0.70030910  0.08050003  0.06141003     0.14800
C349        C  0.27871213  0.10411340  0.04454224    -0.14800
C350        C  0.31129603  0.12554203  0.01463014    -0.29900
H351        H  0.29107721  0.08634752  0.07780547     0.14300
H352        H  0.29702696  0.14463412  0.98278217     0.14800
C353        C  0.71222148  0.74763905  0.08386008    -0.14800
C354        C  0.72917540  0.77374780  0.04580535    -0.29900
H355        H  0.73876307  0.72784511  0.10612408     0.14300
H356        H  0.70394113  0.79120412  0.02054275     0.14800
C357        C  0.28438050  0.78426946  0.04854862    -0.14800
C358        C  0.30128918  0.76302290  0.08957161    -0.29900
H359        H  0.31015883  0.79682940  0.02127475     0.14300
H360        H  0.27455371  0.74700861  0.11417360     0.14800
loop_ 
_geom_bond_atom_site_label_1 
_geom_bond_atom_site_label_2 
_geom_bond_distance 
_geom_bond_site_symmetry_2 
_ccdc_geom_bond_type 
N1            N2   1.325       .  A
N1            C5   1.354       .  A
N1           Cu9   2.097       .  S
N2            C3   1.342       .  A
N2           Cu8   2.092       .  S
C3            C4   1.380       .  A
C3            H6   1.083       .  S
C4            C5   1.388       .  A
C4          C358   1.479       .  S
C5            H7   1.082       .  S
Cu8          N11   2.091       .  S
Cu9          N19   2.097       .  S
Cu10         N12   2.084       .  S
Cu10         N18   2.085       .  S
N11          N12   1.320       .  A
N11          C15   1.350       .  A
N12          C13   1.349       .  A
C13          C14   1.388       .  A
C13          H16   1.082       .  S
C14          C15   1.390       .  A
C14          C38   1.486       .  S
C15          H17   1.082       .  S
N18          N19   1.325       .  A
N18          C22   1.340       .  A
N19          C20   1.355       .  A
C20          C21   1.389       .  A
C20          H23   1.082       .  S
C21          C22   1.379       .  A
C21         C353   1.478       .  S
C22          H24   1.083       .  S
N25          N26   1.325       .  A
N25          C29   1.353       .  A
N25         Cu33   2.084       .  S
N26          C27   1.341       .  A
N26         Cu32   2.087       .  S
C27          C28   1.379       .  A
C27          H30   1.083       .  S
C28          C29   1.384       .  A
C28         C350   1.473       .  S
C29          H31   1.082       .  S
Cu32         N35   2.087       .  S
Cu33         N43   2.084       .  S
Cu34         N36   2.092       .  S
Cu34         N42   2.092       .  S
N35          N36   1.321       .  A
N35          C39   1.350       .  A
N36          C37   1.350       .  A
C37          C38   1.389       .  A
C37          H40   1.081       .  S
C38          C39   1.388       .  A
C39          H41   1.082       .  S
N42          N43   1.325       .  A
N42          C46   1.342       .  A
N43          C44   1.351       .  A
C44          C45   1.386       .  A
C44          H47   1.082       .  S
C45          C46   1.382       .  A
C45         C345   1.476       .  S
C46          H48   1.083       .  S
N49          N50   1.324       .  A
N49          C53   1.349       .  A
N49         Cu57   2.073       .  S
N50          C51   1.342       .  A
N50         Cu56   2.089       .  S
C51          C52   1.382       .  A
C51          H54   1.083       .  S
C52          C53   1.383       .  A
C52         C341   1.473       .  S
C53          H55   1.082       .  S
Cu56         N59   2.088       .  S
Cu57         N67   2.074       .  S
Cu58         N60   2.076       .  S
Cu58         N66   2.076       .  S
N59          N60   1.321       .  A
N59          C63   1.347       .  A
N60          C61   1.348       .  A
C61          C62   1.385       .  A
C61          H64   1.081       .  S
C62          C63   1.388       .  A
C62          C86   1.480       .  S
C63          H65   1.081       .  S
N66          N67   1.323       .  A
N66          C70   1.340       .  A
N67          C68   1.349       .  A
C68          C69   1.382       .  A
C68          H71   1.082       .  S
C69          C70   1.379       .  A
C69         C337   1.465       .  S
C70          H72   1.082       .  S
N73          N74   1.323       .  A
N73          C77   1.353       .  A
N73         Cu81   2.089       .  S
N74          C75   1.340       .  A
N74         Cu80   2.074       .  S
C75          C76   1.379       .  A
C75          H78   1.083       .  S
C76          C77   1.388       .  A
C76         C333   1.476       .  S
C77          H79   1.081       .  S
Cu80         N83   2.073       .  S
Cu81         N91   2.090       .  S
Cu82         N84   2.093       .  S
Cu82         N90   2.094       .  S
N83          N84   1.321       .  A
N83          C87   1.346       .  A
N84          C85   1.350       .  A
C85          C86   1.390       .  A
C85          H88   1.081       .  S
C86          C87   1.384       .  A
C87          H89   1.081       .  S
N90          N91   1.326       .  A
N90          C94   1.343       .  A
N91          C92   1.353       .  A
C92          C93   1.385       .  A
C92          H95   1.082       .  S
C93          C94   1.382       .  A
C93         C330   1.477       .  S
C94          H96   1.083       .  S
O97        Cu105   2.003       .  S
O97         C107   1.277       .  A
O98        Cu105   2.008   1_545  S
O98         C108   1.277       .  A
O99        Cu105   1.975   1_556  S
O99         C109   1.276       .  A
O100       Cu105   1.965       .  S
O100        C110   1.275       .  A
O101       Cu106   2.016       .  S
O101        C110   1.275       .  A
O102       Cu106   2.023   1_556  S
O102        C109   1.275       .  A
O103       Cu106   2.052   1_545  S
O103        C108   1.282       .  A
O104       Cu106   2.051       .  S
O104        C107   1.281       .  A
Cu105      Cu106   2.361       .  S
C107        N258   1.452       .  S
C108        N118   1.454       .  S
C109        C255   1.478       .  S
C110        C115   1.472       .  S
N111        C115   1.364       .  A
N111        C112   1.364       .  A
N111        C180   1.450       .  S
C112        C113   1.379       .  A
C112        C342   1.478       .  S
C113        C114   1.360       .  A
C113        H116   1.083       .  S
C114        C115   1.384       .  A
C114        H117   1.083       .  S
N118        C122   1.372       .  A
N118        C119   1.368       .  A
C119        C120   1.378       .  A
C119        C346   1.483       .  S
C120        C121   1.357       .  A
C120        H123   1.083       .  S
C121        C122   1.385       .  A
C121        H124   1.083       .  S
C122        C194   1.482       .  S
O125       Cu133   2.061   1_455  S
O125        C135   1.283       .  A
O126       Cu133   2.045       .  S
O126        C136   1.280       .  A
O127       Cu133   2.029       .  S
O127        C137   1.276       .  A
O128       Cu133   2.024   1_545  S
O128        C138   1.275       .  A
O129       Cu134   1.975   1_545  S
O129        C138   1.276       .  A
O130       Cu134   1.974       .  S
O130        C137   1.276       .  A
O131       Cu134   1.997       .  S
O131        C136   1.276       .  A
O132       Cu134   2.013   1_455  S
O132        C135   1.278       .  A
Cu133      Cu134   2.360       .  S
C135        N146   1.457       .  S
C136        N251   1.452       .  S
C137        C248   1.482       .  S
C138        C143   1.477       .  S
N139        C143   1.366       .  A
N139        C140   1.366       .  A
N139        C191   1.452       .  S
C140        C141   1.379       .  A
C140        C325   1.481   1_655  S
C141        C142   1.360       .  A
C141        H144   1.083       .  S
C142        C143   1.384       .  A
C142        H145   1.083       .  S
N146        C150   1.375       .  A
N146        C147   1.370       .  A
C147        C148   1.378       .  A
C147        C329   1.483       .  S
C148        C149   1.356       .  A
C148        H151   1.083       .  S
C149        C150   1.384       .  A
C149        H152   1.083       .  S
C150        C165   1.483       .  S
O153       Cu161   2.064       .  S
O153        C163   1.285       .  A
O154       Cu161   2.067   1_545  S
O154        C164   1.285       .  A
O155       Cu161   2.026   1_556  S
O155        C165   1.273       .  A
O156       Cu161   2.018       .  S
O156        C166   1.273       .  A
O157       Cu162   1.982       .  S
O157        C166   1.278       .  A
O158       Cu162   1.989   1_556  S
O158        C165   1.280       .  A
O159       Cu162   1.983   1_545  S
O159        C164   1.272       .  A
O160       Cu162   1.983       .  S
O160        C163   1.272       .  A
Cu161      Cu162   2.360       .  S
C163        N237   1.453       .  S
C164        N209   1.454       .  S
C166        C206   1.478       .  S
O167       Cu175   2.022       .  S
O167        C177   1.273       .  A
O168       Cu175   2.017   1_545  S
O168        C178   1.273       .  A
O169       Cu175   2.061       .  S
O169        C179   1.284       .  A
O170       Cu175   2.053   1_655  S
O170        C180   1.284       .  A
O171       Cu176   1.991   1_655  S
O171        C180   1.273       .  A
O172       Cu176   1.996       .  S
O172        C179   1.274       .  A
O173       Cu176   1.973   1_545  S
O173        C178   1.278       .  A
O174       Cu176   1.985       .  S
O174        C177   1.280       .  A
Cu175      Cu176   2.362       .  S
C177        C234   1.479   1_455  S
C178        C199   1.476   1_455  S
C179        N202   1.454       .  S
O181       Cu189   2.000   1_556  S
O181        C191   1.275       .  A
O182       Cu189   2.001       .  S
O182        C192   1.275       .  A
O183       Cu189   1.970   1_455  S
O183        C193   1.276       .  A
O184       Cu189   1.978       .  S
O184        C194   1.278       .  A
O185       Cu190   2.030   1_655  S
O185        C194   1.275       .  A
O186       Cu190   2.025       .  S
O186        C193   1.274       .  A
O187       Cu190   2.057       .  S
O187        C192   1.283   1_455  A
O188       Cu190   2.056   1_656  S
O188        C191   1.284       .  A
Cu189      Cu190   2.359   1_655  S
C192        N195   1.456       .  S
C193        C213   1.477       .  S
N195        C199   1.372       .  A
N195        C196   1.368       .  A
C196        C197   1.380       .  A
C196        C321   1.483       .  S
C197        C198   1.354       .  A
C197        H200   1.083       .  S
C198        C199   1.384       .  A
C198        H201   1.083       .  S
N202        C206   1.370       .  A
N202        C203   1.368       .  A
C203        C204   1.379       .  A
C203        C334   1.484       .  S
C204        C205   1.359       .  A
C204        H207   1.083       .  S
C205        C206   1.384       .  A
C205        H208   1.083       .  S
N209        C213   1.370       .  A
N209        C210   1.370       .  A
C210        C211   1.379       .  A
C210        C349   1.487       .  S
C211        C212   1.356       .  A
C211        H214   1.083       .  S
C212        C213   1.385       .  A
C212        H215   1.083       .  S
O216       Cu224   1.978       .  S
O216        C226   1.277       .  A
O217       Cu224   1.992   1_655  S
O217        C227   1.280       .  A
O218       Cu224   2.004   1_556  S
O218        C228   1.275       .  A
O219       Cu224   2.016       .  S
O219        C229   1.277       .  A
O220       Cu225   2.069       .  S
O220        C229   1.285       .  A
O221       Cu225   2.051   1_556  S
O221        C228   1.283       .  A
O222       Cu225   2.032   1_655  S
O222        C227   1.275       .  A
O223       Cu225   2.018       .  S
O223        C226   1.274       .  A
Cu224      Cu225   2.360       .  S
C226        C241   1.477       .  S
C227        C262   1.486       .  S
C228        N244   1.452       .  S
C229        N230   1.459       .  S
N230        C234   1.372   1_455  A
N230        C231   1.369       .  A
C231        C232   1.379   1_455  A
C231        C317   1.483       .  S
C232        C233   1.356       .  A
C232        H235   1.083       .  S
C233        C234   1.384       .  A
C233        H236   1.083       .  S
N237        C241   1.368       .  A
N237        C238   1.368       .  A
C238        C239   1.377       .  A
C238        C357   1.484       .  S
C239        C240   1.361       .  A
C239        H242   1.083       .  S
C240        C241   1.385       .  A
C240        H243   1.083       .  S
N244        C248   1.370   1_455  A
N244        C245   1.369   1_455  A
C245        C246   1.380       .  A
C245        C313   1.487   1_655  S
C246        C247   1.359       .  A
C246        H249   1.083       .  S
C247        C248   1.384       .  A
C247        H250   1.083       .  S
N251        C255   1.369       .  A
N251        C252   1.365       .  A
C252        C253   1.379       .  A
C252        C338   1.479       .  S
C253        C254   1.360       .  A
C253        H256   1.083       .  S
C254        C255   1.385       .  A
C254        H257   1.083       .  S
N258        C262   1.372       .  A
N258        C259   1.368       .  A
C259        C260   1.378       .  A
C259        C354   1.485       .  S
C260        C261   1.360       .  A
C260        H263   1.083       .  S
C261        C262   1.385       .  A
C261        H264   1.083       .  S
N265        N266   1.325       .  A
N265        C269   1.352       .  A
N265       Cu273   2.090       .  S
N266        C267   1.343       .  A
N266       Cu272   2.092       .  S
C267        C268   1.382       .  A
C267        H270   1.082       .  S
C268        C269   1.386       .  A
C268        C326   1.478       .  S
C269        H271   1.082       .  S
Cu272       N275   2.091       .  S
Cu273       N283   2.091       .  S
Cu274       N276   2.089       .  S
Cu274       N282   2.089       .  S
N275        N276   1.320       .  A
N275        C279   1.349       .  A
N276        C277   1.351       .  A
C277        C278   1.388       .  A
C277        H280   1.081       .  S
C278        C279   1.389       .  A
C278        C302   1.487       .  S
C279        H281   1.081       .  S
N282        N283   1.325       .  A
N282        C286   1.341       .  A
N283        C284   1.354       .  A
C284        C285   1.389       .  A
C284        H287   1.082       .  S
C285        C286   1.381       .  A
C285        C314   1.480       .  S
C286        H288   1.084       .  S
N289        N290   1.323       .  A
N289        C293   1.350       .  A
N289       Cu297   2.067       .  S
N290        C291   1.341   1_455  A
N290       Cu296   2.080       .  S
C291        C292   1.380       .  A
C291        H294   1.083       .  S
C292        C293   1.381   1_655  A
C292        C322   1.467       .  S
C293        H295   1.082       .  S
Cu296       N299   2.080       .  S
Cu297       N307   2.069       .  S
Cu298       N300   2.107       .  S
Cu298       N306   2.108       .  S
N299        N300   1.322       .  A
N299        C303   1.348       .  A
N300        C301   1.352       .  A
C301        C302   1.392       .  A
C301        H304   1.081       .  S
C302        C303   1.385       .  A
C303        H305   1.081       .  S
N306        N307   1.325       .  A
N306        C310   1.345       .  A
N307        C308   1.349       .  A
C308        C309   1.383       .  A
C308        H311   1.082       .  S
C309        C310   1.386       .  A
C309        C318   1.480       .  S
C310        H312   1.083       .  S
C313        C314   1.349       .  D
C313        H315   1.085   1_455  S
C314        H316   1.089       .  S
C317        C318   1.351       .  D
C317        H319   1.085       .  S
C318        H320   1.088       .  S
C321        C322   1.344       .  D
C321        H323   1.086   1_655  S
C322        H324   1.088       .  S
C325        C326   1.347       .  D
C325        H327   1.086   1_455  S
C326        H328   1.089       .  S
C329        C330   1.348       .  D
C329        H331   1.086       .  S
C330        H332   1.088       .  S
C333        C334   1.347       .  D
C333        H335   1.089       .  S
C334        H336   1.086       .  S
C337        C338   1.341       .  D
C337        H339   1.087   1_565  S
C338        H340   1.086       .  S
C341        C342   1.346       .  D
C341        H343   1.089   1_565  S
C342        H344   1.086       .  S
C345        C346   1.347       .  D
C345        H347   1.088       .  S
C346        H348   1.086       .  S
C349        C350   1.347       .  D
C349        H351   1.086       .  S
C350        H352   1.088   1_554  S
C353        C354   1.346       .  D
C353        H355   1.089       .  S
C354        H356   1.086       .  S
C357        C358   1.346       .  D
C357        H359   1.086       .  S
C358        H360   1.088       .  S
