geometry optimzed in LAMMPS
_audit_creation_date              2020-11-30 
_audit_creation_method            'lammps2cif' 
_symmetry_space_group_name_H-M    'P1' 
_symmetry_Int_Tables_number       1 
_symmetry_cell_setting            triclinic 
loop_ 
_symmetry_equiv_pos_as_xyz 
  x,y,z 
_cell_length_a                    31.05891133 
_cell_length_b                    41.55039368428382 
_cell_length_c                    49.371084812954905 
_cell_angle_alpha                 89.83472769537472 
_cell_angle_beta                  108.11279315245783 
_cell_angle_gamma                 90.45184017330757 
loop_ 
_atom_site_label 
_atom_site_type_symbol 
_atom_site_fract_x 
_atom_site_fract_y 
_atom_site_fract_z 
_atom_site_charge 
N1          N  0.97676241  0.02294745  0.96175118    -0.35900
N2          N  0.99334649  0.04963259  0.01867216    -0.56400
N3          N  0.03707549  0.99010958  0.04292571    -0.35900
N4          N  0.02300736  0.96411318  0.98608340    -0.56400
C5          C  0.96991770  0.05470670  0.95581842     0.27700
C6          C  0.98302249  0.00879206  0.93857528     0.27700
C7          C  0.04865329  0.00908768  0.06639938     0.27700
C8          C  0.06396082  0.96383314  0.04913082     0.27700
C9          C  0.96897661  0.07409422  0.00333775     0.36300
C10         C  0.99993697  0.05645153  0.04647642     0.36300
C11         C  0.00426634  0.95436079  0.95881048     0.36300
C12         C  0.03762849  0.93726230  0.00167389     0.36300
C13         C  0.97207444  0.06077478  0.92862211    -0.21100
C14         C  0.98080164  0.03190107  0.91787983    -0.21100
C15         C  0.08299893  0.99438538  0.08779303    -0.21100
C16         C  0.09274891  0.96603766  0.07685401    -0.21100
C17         C  0.96082938  0.09690882  0.02157193    -0.22200
C18         C  0.98044166  0.08580941  0.04878696    -0.22200
C19         C  0.00684428  0.92114036  0.95712824    -0.22200
C20         C  0.02806220  0.91033614  0.98427887    -0.22200
C21         C  0.95844475  0.07780030  0.97342584    -0.17600
C22         C  0.98830492  0.97530025  0.93522826    -0.17600
C23         C  0.06165000  0.93699752  0.03114427    -0.17500
C24         C  0.02723848  0.03819493  0.06973966    -0.17500
H25         H  0.96764624  0.08359023  0.91751832     0.15400
H26         H  0.98476442  0.02838156  0.89708079     0.15400
H27         H  0.09937123  0.00279932  0.10926481     0.15400
H28         H  0.11790871  0.94881338  0.08822239     0.15400
H29         H  0.94434455  0.11992113  0.01611091     0.13600
H30         H  0.98175541  0.09879747  0.06797314     0.13600
H31         H  0.99508316  0.90618964  0.93831284     0.13600
H32         H  0.03564746  0.88549671  0.99045670     0.13600
H33         H  0.97192911  0.01096737  0.97914458     0.26900
H34         H  0.00908354  0.99308311  0.02492985     0.26900
N35         N  0.70760785  0.32383973  0.91348391    -0.26500
N36         N  0.71482239  0.32017111  0.88867916    -0.34400
C37         C  0.74109346  0.29412777  0.89012706     0.01800
C38         C  0.75062330  0.28085969  0.91720485     0.07800
C39         C  0.72885070  0.30038991  0.93132406    -0.05300
H40         H  0.75120188  0.28507236  0.87251851     0.08500
H41         H  0.72760586  0.29732293  0.95284139     0.09700
Cu42       Cu  0.68488233  0.34988571  0.85386637     0.44200
Cu43       Cu  0.66682858  0.35924481  0.92144463     0.42000
Cu44       Cu  0.60418636  0.40998048  0.86305631     0.43900
N45         N  0.64711455  0.38048125  0.82176635    -0.33900
N46         N  0.61725666  0.40161272  0.82479876    -0.28200
C47         C  0.59867375  0.41681198  0.79976252    -0.04300
C48         C  0.61789081  0.40473059  0.78006409     0.07900
C49         C  0.64843338  0.38188053  0.79481049     0.01700
H50         H  0.57370258  0.43563769  0.79641500     0.09400
H51         H  0.67015807  0.36728692  0.78651148     0.08500
N52         N  0.60085602  0.41408004  0.90436397    -0.35400
N53         N  0.62390488  0.39533151  0.92549450    -0.27600
C54         C  0.61532236  0.40390884  0.94949336    -0.02800
C55         C  0.58561925  0.42938519  0.94336155     0.05800
C56         C  0.57700419  0.43526221  0.91447510     0.03900
H57         H  0.63000125  0.39255429  0.97002107     0.09000
H58         H  0.55526741  0.45352183  0.90170989     0.07800
N59         N  0.31790253  0.69158123  0.08723496    -0.26500
N60         N  0.31084722  0.69534248  0.11207515    -0.34400
C61         C  0.28406740  0.72116514  0.11050706     0.01800
C62         C  0.27389331  0.73407611  0.08324791     0.07800
C63         C  0.29596051  0.71465693  0.06923297    -0.05300
H64         H  0.27294054  0.72974945  0.12787162     0.08500
H65         H  0.29606123  0.71712412  0.04742825     0.09700
Cu66       Cu  0.33915231  0.66443050  0.14626948     0.44200
Cu67       Cu  0.35674092  0.65515723  0.07867164     0.42000
Cu68       Cu  0.41302813  0.59996726  0.13510694     0.43900
N69         N  0.37361381  0.63151531  0.17733019    -0.33900
N70         N  0.40085229  0.60870025  0.17370088    -0.28200
C71         C  0.41834154  0.59281857  0.19854278    -0.04300
C72         C  0.40112531  0.60625745  0.21869177     0.07900
C73         C  0.37295718  0.63058400  0.20442027     0.01700
H74         H  0.44190125  0.57309718  0.20160899     0.09400
H75         H  0.35376365  0.64682505  0.21325460     0.08500
N76         N  0.41664886  0.59680185  0.09369889    -0.35400
N77         N  0.39580227  0.61713165  0.07326812    -0.27600
C78         C  0.40435444  0.60908834  0.04912001    -0.02800
C79         C  0.43193724  0.58241838  0.05442815     0.05800
C80         C  0.43912351  0.57518069  0.08297668     0.03900
H81         H  0.39149524  0.62184780  0.02911726     0.09000
H82         H  0.45921879  0.55583036  0.09515397     0.07800
N83         N  0.45951237  0.47359218  0.45736748    -0.35900
N84         N  0.51836541  0.52944846  0.47519546    -0.56400
N85         N  0.53192299  0.51247380  0.53488782    -0.35900
N86         N  0.46863133  0.45859654  0.51634849    -0.56400
C87         C  0.45348194  0.48843216  0.43200243     0.27700
C88         C  0.42511270  0.45211979  0.45378576     0.27700
C89         C  0.54847920  0.54298674  0.53737565     0.27700
C90         C  0.52222711  0.50548253  0.55919370     0.27700
C91         C  0.51666085  0.52814935  0.44746663     0.36300
C92         C  0.55325899  0.54934648  0.48832688     0.36300
C93         C  0.44453434  0.43232637  0.50386446     0.36300
C94         C  0.48268446  0.45297206  0.54475166     0.36300
C95         C  0.41494880  0.47618805  0.41204853    -0.21100
C96         C  0.39710002  0.45331017  0.42573087    -0.21100
C97         C  0.54893923  0.55555582  0.56346278    -0.21100
C98         C  0.53261794  0.53186979  0.57726235    -0.21100
C99         C  0.55074262  0.54716077  0.44305943    -0.22200
C100        C  0.57370359  0.56074879  0.46886910    -0.22200
C101        C  0.44300300  0.41007811  0.52454378    -0.22200
C102        C  0.46753045  0.42296731  0.55033335    -0.22200
C103        C  0.48328746  0.51124857  0.42589409    -0.17600
C104        C  0.42037354  0.42968403  0.47440590    -0.17600
C105        C  0.50548183  0.47559696  0.56582857    -0.17500
C106        C  0.56495731  0.55908199  0.51716034    -0.17500
H107        H  0.40127869  0.48278644  0.38980551     0.15400
H108        H  0.36729386  0.43880576  0.41583816     0.15400
H109        H  0.55961986  0.57939266  0.57172865     0.15400
H110        H  0.52839016  0.53403414  0.59812500     0.15400
H111        H  0.55836128  0.55095030  0.42334116     0.13600
H112        H  0.60229094  0.57710419  0.47284508     0.13600
H113        H  0.42523510  0.38725186  0.52168038     0.13600
H114        H  0.47251922  0.41177821  0.57089106     0.13600
H115        H  0.48830368  0.47529613  0.47501428     0.26900
H116        H  0.53163920  0.49626557  0.51880853     0.26900
N117        N  0.17555953  0.17864082  0.41314869    -0.26500
N118        N  0.17304101  0.18877822  0.38730738    -0.34400
C119        C  0.20120050  0.21416630  0.38953339     0.01800
C120        C  0.22257690  0.22025608  0.41824316     0.07800
C121        C  0.20549104  0.19719549  0.43250240    -0.05300
H122        H  0.20616764  0.22680127  0.37154394     0.08500
H123        H  0.21424988  0.19410488  0.45533895     0.09700
Cu124      Cu  0.13279126  0.16609512  0.35048066     0.44200
Cu125      Cu  0.13810292  0.13978878  0.42060269     0.42000
Cu126      Cu  0.07361362  0.09204246  0.36013286     0.43900
N127        N  0.09567963  0.13646906  0.31735190    -0.33900
N128        N  0.07597936  0.10909160  0.32088788    -0.28200
C129        C  0.05749434  0.09511118  0.29527756    -0.04300
C130        C  0.06565096  0.11475263  0.27465034     0.07900
C131        C  0.08963489  0.14078608  0.28938813     0.01700
H132        H  0.03907041  0.07251075  0.29195700     0.09400
H133        H  0.10268163  0.16107175  0.28049202     0.08500
N134        N  0.07374178  0.08311236  0.40170343    -0.35400
N135        N  0.09715233  0.10093238  0.42355635    -0.27600
C136        C  0.08932223  0.09019329  0.44729730    -0.02800
C137        C  0.05964806  0.06436674  0.44026138     0.05800
C138        C  0.05041855  0.06043802  0.41108393     0.03900
H139        H  0.10398097  0.10062154  0.46823834     0.09000
H140        H  0.02806691  0.04281268  0.39757979     0.07800
N141        N  0.81736603  0.79643301  0.60398425    -0.26500
N142        N  0.81574464  0.79572513  0.63044394    -0.34400
C143        C  0.79333938  0.76900067  0.63401708     0.01800
C144        C  0.78024866  0.75197781  0.60869612     0.07800
C145        C  0.79611132  0.77011813  0.59008999    -0.05300
H146        H  0.78656105  0.76261027  0.65357039     0.08500
H147        H  0.79204380  0.76500730  0.56796889     0.09700
Cu148      Cu  0.84231602  0.83160470  0.66043020     0.44200
Cu149      Cu  0.84677481  0.83370899  0.58736656     0.42000
Cu150      Cu  0.88547474  0.90194761  0.63410176     0.43900
N151        N  0.86732827  0.87202851  0.68527176    -0.33900
N152        N  0.88190449  0.89808995  0.67529546    -0.28200
C153        C  0.89459796  0.92026290  0.69612697    -0.04300
C154        C  0.88814951  0.90753001  0.72048772     0.07900
C155        C  0.87073024  0.87685301  0.71283010     0.01700
H156        H  0.90807078  0.94383873  0.69379931     0.09400
H157        H  0.86074650  0.85942266  0.72609762     0.08500
N158        N  0.89029746  0.89955113  0.59313694    -0.35400
N159        N  0.87635836  0.87462602  0.57597219    -0.27600
C160        C  0.88489653  0.88054387  0.55127945    -0.02800
C161        C  0.90540806  0.91051667  0.55303609     0.05800
C162        C  0.90819645  0.92188039  0.57991751     0.03900
H163        H  0.87704782  0.86412394  0.53340674     0.09000
H164        H  0.92210855  0.94465889  0.58931555     0.07800
C165        C  0.96388696  0.96920268  0.51410778     0.19400
C166        C  0.00398008  0.98739259  0.52360660    -0.18600
C167        C  0.02103441  0.00367395  0.50428776    -0.10900
C168        C  0.99771134  0.00283107  0.47483782     0.21700
C169        C  0.95776474  0.98432227  0.46527317    -0.20300
C170        C  0.94086977  0.96775056  0.48466352    -0.11100
C171        C  0.01437813  0.02061102  0.45366417    -0.15300
C172        C  0.04237660  0.04631377  0.46067886    -0.29100
C173        C  0.94667187  0.95312921  0.53571538    -0.03400
C174        C  0.92074574  0.92632161  0.53063477    -0.39900
H175        H  0.02250587  0.98877503  0.54614163     0.12800
H176        H  0.05278243  0.01652764  0.51265488     0.12500
H177        H  0.93917818  0.98308309  0.44274688     0.11900
H178        H  0.90937560  0.95447297  0.47658072     0.12100
H179        H  0.00215164  0.01287889  0.43157521     0.14900
H180        H  0.05310571  0.05524407  0.48237397     0.13700
H181        H  0.95783516  0.96302480  0.55712265     0.11300
H182        H  0.91172499  0.91487313  0.50987502     0.13400
C183        C  0.71379179  0.67641687  0.57150792     0.19400
C184        C  0.69262567  0.66844242  0.54279867    -0.18600
C185        C  0.66494433  0.64110795  0.53531977    -0.10900
C186        C  0.65789868  0.62089129  0.55648050     0.21700
C187        C  0.68021314  0.62820459  0.58519942    -0.20300
C188        C  0.70772995  0.65571882  0.59271219    -0.11100
C189        C  0.62885607  0.59150113  0.54923005    -0.15300
C190        C  0.59315572  0.58895209  0.52534451    -0.29100
C191        C  0.74238269  0.70611737  0.57812857    -0.03400
C192        C  0.75358285  0.72160329  0.60332773    -0.39900
H193        H  0.69729047  0.68357888  0.52600990     0.12800
H194        H  0.64981457  0.63563975  0.51293987     0.12500
H195        H  0.67605017  0.61268901  0.60189574     0.11900
H196        H  0.72456575  0.66028946  0.61506753     0.12100
H197        H  0.63662106  0.57159844  0.56425145     0.14900
H198        H  0.58506051  0.60887126  0.51038844     0.13700
H199        H  0.75297455  0.71637756  0.56095364     0.11300
H200        H  0.74212776  0.71248214  0.62052704     0.13400
C201        C  0.36254088  0.34630976  0.45368150     0.19400
C202        C  0.36852341  0.31563166  0.46625916    -0.18600
C203        C  0.33769550  0.29061950  0.45482821    -0.10900
C204        C  0.30053262  0.29571067  0.43022261     0.21700
C205        C  0.29531610  0.32615660  0.41725534    -0.20300
C206        C  0.32570531  0.35124567  0.42890470    -0.11100
C207        C  0.26745458  0.26971907  0.41688735    -0.15300
C208        C  0.25694348  0.24522536  0.43168164    -0.29100
C209        C  0.39640421  0.37219394  0.46589095    -0.03400
C210        C  0.38568506  0.40364091  0.46433979    -0.39900
H211        H  0.39707107  0.31104995  0.48505551     0.12800
H212        H  0.34362232  0.26722331  0.46493158     0.12500
H213        H  0.26744005  0.33059812  0.39805267     0.11900
H214        H  0.32087300  0.37422593  0.41804463     0.12100
H215        H  0.24929693  0.27192070  0.39430194     0.14900
H216        H  0.27261933  0.24391953  0.45460000     0.13700
H217        H  0.43113939  0.36516441  0.47675396     0.11300
H218        H  0.35098392  0.41092845  0.45389829     0.13400
C219        C  0.46601581  0.55289826  0.35247134     0.19400
C220        C  0.45148120  0.58371827  0.34202119    -0.18600
C221        C  0.44294532  0.59126005  0.31321103    -0.10900
C222        C  0.44858279  0.56802133  0.29391445     0.21700
C223        C  0.46450973  0.53746882  0.30446046    -0.20300
C224        C  0.47306351  0.52988916  0.33335908    -0.11100
C225        C  0.43927471  0.57516742  0.26296154    -0.15300
C226        C  0.41034444  0.59824060  0.24922563    -0.29100
C227        C  0.47396951  0.54632113  0.38340850    -0.03400
C228        C  0.47898340  0.51674337  0.39520089    -0.39900
H229        H  0.44653321  0.60213437  0.35623645     0.12800
H230        H  0.43258684  0.61550759  0.30634331     0.12500
H231        H  0.47000547  0.51928128  0.29022744     0.11900
H232        H  0.48558854  0.50614576  0.34048208     0.12100
H233        H  0.45575244  0.56038897  0.25104689     0.14900
H234        H  0.39196592  0.61204095  0.26059057     0.13700
H235        H  0.47375391  0.56678031  0.39704357     0.11300
H236        H  0.47563226  0.49559937  0.38188191     0.13400
C237        C  0.49211045  0.52306458  0.01803825     0.19400
C238        C  0.50436825  0.49061161  0.02264065    -0.18600
C239        C  0.52043064  0.47380520  0.00330226    -0.10900
C240        C  0.52533928  0.48931879  0.97902625     0.21700
C241        C  0.51312175  0.52179103  0.97440797    -0.20300
C242        C  0.49699450  0.53860745  0.99375214    -0.11100
C243        C  0.54218080  0.47233559  0.95785412    -0.15300
C244        C  0.56826489  0.44597143  0.96421635    -0.29100
C245        C  0.47516259  0.53981580  0.03929041    -0.03400
C246        C  0.44933626  0.56632591  0.03330330    -0.39900
H247        H  0.50089320  0.47804125  0.04111336     0.12800
H248        H  0.52809711  0.44856688  0.00728045     0.12500
H249        H  0.51658863  0.53432457  0.95591508     0.11900
H250        H  0.48918553  0.56382492  0.98975846     0.12100
H251        H  0.53422032  0.48266449  0.93665399     0.14900
H252        H  0.57875837  0.43642863  0.98572743     0.13700
H253        H  0.48283800  0.52909889  0.06032541     0.11300
H254        H  0.43939097  0.57647764  0.01201358     0.13400
C255        C  0.55417042  0.46084835  0.64749281     0.19400
C256        C  0.59809415  0.45463741  0.66555912    -0.18600
C257        C  0.60561746  0.44575763  0.69399544    -0.10900
C258        C  0.56924659  0.44297358  0.70516937     0.21700
C259        C  0.52542238  0.45010066  0.68740538    -0.20300
C260        C  0.51782050  0.45879894  0.65883813    -0.11100
C261        C  0.57628506  0.43362521  0.73539725    -0.15300
C262        C  0.61016478  0.41421977  0.74999915    -0.29100
C263        C  0.54828771  0.47009792  0.61733701    -0.03400
C264        C  0.50870512  0.46829499  0.59607815    -0.39900
H265        H  0.62682103  0.45653360  0.65759640     0.12800
H266        H  0.64007538  0.44160404  0.70725977     0.12500
H267        H  0.49691074  0.44869532  0.69560867     0.11900
H268        H  0.48361039  0.46436425  0.64599870     0.12100
H269        H  0.55183174  0.44186606  0.74544486     0.14900
H270        H  0.63275503  0.40403331  0.73942503     0.13700
H271        H  0.57842894  0.47730527  0.61203046     0.11300
H272        H  0.47874456  0.45878590  0.60021074     0.13400
C273        C  0.03390201  0.07472847  0.20081678     0.19400
C274        C  0.05369893  0.04858906  0.19138735    -0.18600
C275        C  0.04485316  0.04295924  0.16225868    -0.10900
C276        C  0.01492185  0.06284345  0.14204075     0.21700
C277        C  0.99393438  0.08839077  0.15140371    -0.20300
C278        C  0.00389544  0.09464700  0.18059594    -0.11700
C279        C  0.00404487  0.05606389  0.11122195    -0.15300
C280        C  0.03685576  0.05054041  0.09939702    -0.29100
C281        C  0.04422953  0.08015296  0.23184622    -0.03400
C282        C  0.05234113  0.10964622  0.24350770    -0.39900
H283        H  0.07653857  0.03276489  0.20661537     0.12800
H284        H  0.06067979  0.02268030  0.15549042     0.12500
H285        H  0.97029588  0.10369523  0.13611190     0.11900
H286        H  0.98750680  0.11459455  0.18738047     0.12100
H287        H  0.96867293  0.05496998  0.09828584     0.14900
H288        H  0.07194138  0.05228079  0.11274077     0.13700
H289        H  0.04890500  0.05916644  0.24561079     0.11300
H290        H  0.05192466  0.13042502  0.23002334     0.13400
C291        C  0.93427498  0.95330606  0.85532505     0.19400
C292        C  0.91065099  0.97065509  0.83084311    -0.18600
C293        C  0.90000897  0.95655463  0.80380088    -0.10900
C294        C  0.91221435  0.92453117  0.80078609     0.21700
C295        C  0.93491861  0.90697492  0.82532320    -0.20300
C296        C  0.94616536  0.92121546  0.85229723    -0.11100
C297        C  0.90041421  0.90835643  0.77256818    -0.15300
C298        C  0.89801777  0.92408158  0.74828743    -0.29100
C299        C  0.94381491  0.96867346  0.88377317    -0.03400
C300        C  0.98016744  0.96134124  0.90614794    -0.39900
H301        H  0.90046849  0.99522614  0.83266310     0.12800
H302        H  0.88134694  0.97050045  0.78540955     0.12500
H303        H  0.94410032  0.88213975  0.82359763     0.11900
H304        H  0.96303391  0.90675323  0.87075395     0.12100
H305        H  0.89626727  0.88236465  0.77210318     0.14900
H306        H  0.90557002  0.94967232  0.74885991     0.13700
H307        H  0.92031653  0.98680677  0.88625839     0.11300
H308        H  0.00387080  0.94345646  0.90356397     0.13400
C309        C  0.19868953  0.81040755  0.07183199     0.19400
C310        C  0.17049369  0.82427931  0.08592500    -0.18600
C311        C  0.14411288  0.85123457  0.07461092    -0.10900
C312        C  0.14533030  0.86508409  0.04874864     0.21700
C313        C  0.17424564  0.85159766  0.03500076    -0.20300
C314        C  0.20066964  0.82475117  0.04633829    -0.11100
C315        C  0.11806684  0.89374356  0.03544269    -0.15300
C316        C  0.08563772  0.90719746  0.04447461    -0.29100
C317        C  0.22622511  0.78169430  0.08479431    -0.03400
C318        C  0.24602028  0.76226515  0.07043095    -0.39900
H319        H  0.16870982  0.81412816  0.10578814     0.12800
H320        H  0.12328967  0.86098634  0.08645504     0.12500
H321        H  0.17652568  0.86193880  0.01531634     0.11900
H322        H  0.22300082  0.81587309  0.03514193     0.12100
H323        H  0.12503137  0.90449477  0.01711718     0.14900
H324        H  0.07813924  0.89807111  0.06308228     0.13700
H325        H  0.22960532  0.77608409  0.10685350     0.11300
H326        H  0.24174990  0.76662565  0.04811373     0.13400
C327        C  0.87075587  0.14636034  0.94841131     0.19400
C328        C  0.83407257  0.15597590  0.95733619    -0.18600
C329        C  0.81036428  0.18416603  0.94681895    -0.10900
C330        C  0.82279490  0.20351214  0.92697151     0.21700
C331        C  0.85868413  0.19348603  0.91744636    -0.20300
C332        C  0.88257292  0.16531720  0.92807344    -0.11100
C333        C  0.79818290  0.23358176  0.91508897    -0.15300
C334        C  0.77557137  0.25118338  0.92901665    -0.29100
C335        C  0.89476977  0.11615350  0.96050303    -0.03400
C336        C  0.93638541  0.10810214  0.95984222    -0.39900
H337        H  0.82373570  0.14162893  0.97263389     0.12800
H338        H  0.78187766  0.19032264  0.95394569     0.12500
H339        H  0.86845992  0.20762497  0.90181078     0.11900
H340        H  0.90967590  0.15839676  0.91993242     0.12100
H341        H  0.80009972  0.24201125  0.89465513     0.14900
H342        H  0.77572095  0.24411717  0.95021651     0.13700
H343        H  0.87807989  0.10011934  0.97161894     0.11300
H344        H  0.95458648  0.12325945  0.94913870     0.13400
loop_ 
_geom_bond_atom_site_label_1 
_geom_bond_atom_site_label_2 
_geom_bond_distance 
_geom_bond_site_symmetry_2 
_ccdc_geom_bond_type 
N1            C6   1.355       .  A
N1            C5   1.355       .  A
N1           H33   1.041       .  S
N2            C9   1.353       .  A
N2           C10   1.354       .  A
N3            C8   1.355       .  A
N3            C7   1.355   1_565  A
N3           H34   1.040       .  S
N4           C11   1.352       .  A
N4           C12   1.352   1_556  A
C5           C13   1.387       .  A
C5           C21   1.416       .  A
C6           C22   1.419   1_545  A
C6           C14   1.386       .  A
C7           C15   1.390   1_545  A
C7           C24   1.419       .  A
C8           C23   1.415       .  A
C8           C16   1.386       .  A
C9           C21   1.418   1_554  A
C9           C17   1.387       .  A
C10          C24   1.419   1_655  A
C10          C18   1.387       .  A
C11          C19   1.387       .  A
C11          C22   1.414   1_455  A
C12          C20   1.385   1_554  A
C12          C23   1.414       .  A
C13          C14   1.376       .  A
C13          H25   1.082       .  S
C14          H26   1.082       .  S
C15          C16   1.372       .  A
C15          H27   1.081   1_565  S
C16          H28   1.082       .  S
C17          C18   1.372       .  A
C17          H29   1.081       .  S
C18          H30   1.081       .  S
C19          C20   1.373       .  A
C19          H31   1.082   1_455  S
C20          H32   1.082       .  S
C21         C336   1.492       .  S
C22         C300   1.496       .  S
C23         C316   1.492       .  S
C24         C280   1.492       .  S
N35          C39   1.343       .  A
N35          N36   1.321       .  A
N35         Cu43   2.065       .  S
N36          C37   1.349       .  A
N36         Cu42   2.087       .  S
C37          C38   1.390       .  A
C37          H40   1.081       .  S
C38          C39   1.381       .  A
C38         C334   1.480       .  S
C39          H41   1.082       .  S
Cu42         N45   2.088       .  S
Cu43         N53   2.065       .  S
Cu44         N46   2.082       .  S
Cu44         N52   2.081       .  S
N45          C49   1.345       .  A
N45          N46   1.324       .  A
N46          C47   1.348       .  A
C47          C48   1.387       .  A
C47          H50   1.082       .  S
C48          C49   1.383       .  A
C48         C262   1.481       .  S
C49          H51   1.082       .  S
N52          C56   1.347       .  A
N52          N53   1.322       .  A
N53          C54   1.342       .  A
C54          C55   1.380       .  A
C54          H57   1.082       .  S
C55          C56   1.388       .  A
C55         C244   1.477       .  S
C56          H58   1.081       .  S
N59          C63   1.343       .  A
N59          N60   1.321       .  A
N59         Cu67   2.067       .  S
N60          C61   1.350       .  A
N60         Cu66   2.087       .  S
C61          C62   1.390       .  A
C61          H64   1.081       .  S
C62          C63   1.381       .  A
C62         C318   1.481       .  S
C63          H65   1.082       .  S
Cu66         N69   2.088       .  S
Cu67         N77   2.067       .  S
Cu68         N70   2.088       .  S
Cu68         N76   2.087       .  S
N69          C73   1.344       .  A
N69          N70   1.325       .  A
N70          C71   1.350       .  A
C71          C72   1.388       .  A
C71          H74   1.082       .  S
C72          C73   1.382       .  A
C72         C226   1.482       .  S
C73          H75   1.082       .  S
N76          C80   1.348       .  A
N76          N77   1.322       .  A
N77          C78   1.343       .  A
C78          C79   1.380       .  A
C78          H81   1.082       .  S
C79          C80   1.389       .  A
C79         C246   1.479       .  S
C80          H82   1.081       .  S
N83          C88   1.355       .  A
N83          C87   1.355       .  A
N83         H115   1.039       .  S
N84          C91   1.355       .  A
N84          C92   1.353       .  A
N85          C90   1.355       .  A
N85          C89   1.356       .  A
N85         H116   1.040       .  S
N86          C93   1.355       .  A
N86          C94   1.353       .  A
C87          C95   1.386       .  A
C87         C103   1.416       .  A
C88         C104   1.419       .  A
C88          C96   1.389       .  A
C89          C97   1.387       .  A
C89         C106   1.419       .  A
C90         C105   1.419       .  A
C90          C98   1.387       .  A
C91         C103   1.417       .  A
C91          C99   1.386       .  A
C92         C106   1.415       .  A
C92         C100   1.387       .  A
C93         C101   1.387       .  A
C93         C104   1.418       .  A
C94         C102   1.386       .  A
C94         C105   1.416       .  A
C95          C96   1.374       .  A
C95         H107   1.082       .  S
C96         H108   1.082       .  S
C97          C98   1.376       .  A
C97         H109   1.082       .  S
C98         H110   1.082       .  S
C99         C100   1.373       .  A
C99         H111   1.082       .  S
C100        H112   1.082       .  S
C101        C102   1.372       .  A
C101        H113   1.081       .  S
C102        H114   1.082       .  S
C103        C228   1.496       .  S
C104        C210   1.493       .  S
C105        C264   1.496       .  S
C106        C190   1.495       .  S
N117        C121   1.346       .  A
N117        N118   1.322       .  A
N117       Cu125   2.080       .  S
N118        C119   1.348       .  A
N118       Cu124   2.082       .  S
C119        C120   1.389       .  A
C119        H122   1.081       .  S
C120        C121   1.384       .  A
C120        C208   1.484       .  S
C121        H123   1.082       .  S
Cu124       N127   2.082       .  S
Cu125       N135   2.080       .  S
Cu126       N128   2.084       .  S
Cu126       N134   2.083       .  S
N127        C131   1.346       .  A
N127        N128   1.324       .  A
N128        C129   1.347       .  A
C129        C130   1.386       .  A
C129        H132   1.082       .  S
C130        C131   1.382       .  A
C130        C282   1.478       .  S
C131        H133   1.082       .  S
N134        C138   1.350       .  A
N134        N135   1.323       .  A
N135        C136   1.343       .  A
C136        C137   1.382       .  A
C136        H139   1.082       .  S
C137        C138   1.388       .  A
C137        C172   1.481       .  S
C138        H140   1.082       .  S
N141        C145   1.347       .  A
N141        N142   1.323       .  A
N141       Cu149   2.084       .  S
N142        C143   1.346       .  A
N142       Cu148   2.081       .  S
C143        C144   1.383       .  A
C143        H146   1.082       .  S
C144        C145   1.388       .  A
C144        C192   1.483       .  S
C145        H147   1.081       .  S
Cu148       N151   2.080       .  S
Cu149       N159   2.084       .  S
Cu150       N152   2.077       .  S
Cu150       N158   2.077       .  S
N151        C155   1.347       .  A
N151        N152   1.322       .  A
N152        C153   1.345       .  A
C153        C154   1.382       .  A
C153        H156   1.082       .  S
C154        C155   1.387       .  A
C154        C298   1.480       .  S
C155        H157   1.082       .  S
N158        C162   1.345       .  A
N158        N159   1.322       .  A
N159        C160   1.347       .  A
C160        C161   1.385       .  A
C160        H163   1.082       .  S
C161        C162   1.387       .  A
C161        C174   1.483       .  S
C162        H164   1.081       .  S
C165        C166   1.402   1_655  A
C165        C170   1.408       .  A
C165        C173   1.488       .  S
C166        C167   1.397   1_565  A
C166        H175   1.084       .  S
C167        C168   1.409   1_455  A
C167        H176   1.081       .  S
C168        C169   1.406   1_545  A
C168        C171   1.494   1_655  S
C169        C170   1.403       .  A
C169        H177   1.083       .  S
C170        H178   1.082       .  S
C171        H179   1.086       .  S
C171        C172   1.348       .  D
C172        H180   1.084       .  S
C173        H181   1.086       .  S
C173        C174   1.347       .  D
C174        H182   1.085       .  S
C183        C184   1.404       .  A
C183        C188   1.409       .  A
C183        C191   1.491       .  S
C184        C185   1.398       .  A
C184        H193   1.083       .  S
C185        C186   1.407       .  A
C185        H194   1.082       .  S
C186        C187   1.404       .  A
C186        C189   1.489       .  S
C187        C188   1.402       .  A
C187        H195   1.083       .  S
C188        H196   1.081       .  S
C189        H197   1.086       .  S
C189        C190   1.348       .  D
C190        H198   1.085       .  S
C191        H199   1.085       .  S
C191        C192   1.347       .  D
C192        H200   1.084       .  S
C201        C202   1.404       .  A
C201        C206   1.407       .  A
C201        C209   1.489       .  S
C202        C203   1.403       .  A
C202        H211   1.083       .  S
C203        C204   1.408       .  A
C203        H212   1.082       .  S
C204        C205   1.404       .  A
C204        C207   1.490       .  S
C205        C206   1.400       .  A
C205        H213   1.083       .  S
C206        H214   1.082       .  S
C207        H215   1.086       .  S
C207        C208   1.347       .  D
C208        H216   1.085       .  S
C209        H217   1.087       .  S
C209        C210   1.347       .  D
C210        H218   1.085       .  S
C219        C220   1.404       .  A
C219        C224   1.410       .  A
C219        C227   1.494       .  S
C220        C221   1.399       .  A
C220        H229   1.083       .  S
C221        C222   1.408       .  A
C221        H230   1.081       .  S
C222        C223   1.405       .  A
C222        C225   1.494       .  S
C223        C224   1.403       .  A
C223        H231   1.083       .  S
C224        H232   1.080       .  S
C225        H233   1.086       .  S
C225        C226   1.348       .  D
C226        H234   1.084       .  S
C227        H235   1.087       .  S
C227        C228   1.348       .  D
C228        H236   1.084       .  S
C237        C238   1.403       .  A
C237        C242   1.409   1_554  A
C237        C245   1.489       .  S
C238        C239   1.398       .  A
C238        H247   1.083       .  S
C239        C240   1.408   1_554  A
C239        H248   1.081       .  S
C240        C241   1.403       .  A
C240        C243   1.488       .  S
C241        C242   1.399       .  A
C241        H249   1.083       .  S
C242        H250   1.081       .  S
C243        H251   1.086       .  S
C243        C244   1.345       .  D
C244        H252   1.084       .  S
C245        H253   1.086       .  S
C245        C246   1.345       .  D
C246        H254   1.084       .  S
C255        C256   1.404       .  A
C255        C260   1.410       .  A
C255        C263   1.492       .  S
C256        C257   1.399       .  A
C256        H265   1.083       .  S
C257        C258   1.407       .  A
C257        H266   1.082       .  S
C258        C259   1.404       .  A
C258        C261   1.490       .  S
C259        C260   1.402       .  A
C259        H267   1.083       .  S
C260        H268   1.081       .  S
C261        H269   1.086       .  S
C261        C262   1.347       .  D
C262        H270   1.085       .  S
C263        H271   1.087       .  S
C263        C264   1.347       .  D
C264        H272   1.084       .  S
C273        C274   1.402       .  A
C273        C278   1.407       .  A
C273        C281   1.482       .  S
C274        C275   1.398       .  A
C274        H283   1.083       .  S
C275        C276   1.405       .  A
C275        H284   1.083       .  S
C276        C277   1.402   1_455  A
C276        C279   1.480       .  S
C277        C278   1.401   1_655  A
C277        H285   1.083       .  S
C278        H286   1.083   1_455  S
C279        H287   1.086   1_455  S
C279        C280   1.344       .  D
C280        H288   1.086       .  S
C281        H289   1.087       .  S
C281        C282   1.344       .  D
C282        H290   1.086       .  S
C291        C292   1.404       .  A
C291        C296   1.407       .  A
C291        C299   1.487       .  S
C292        C293   1.401       .  A
C292        H301   1.083       .  S
C293        C294   1.407       .  A
C293        H302   1.082       .  S
C294        C295   1.403       .  A
C294        C297   1.487       .  S
C295        C296   1.399       .  A
C295        H303   1.083       .  S
C296        H304   1.082       .  S
C297        H305   1.086       .  S
C297        C298   1.345       .  D
C298        H306   1.086       .  S
C299        H307   1.086       .  S
C299        C300   1.348       .  D
C300        H308   1.085   1_655  S
C309        C310   1.404       .  A
C309        C314   1.409       .  A
C309        C317   1.495       .  S
C310        C311   1.401       .  A
C310        H319   1.083       .  S
C311        C312   1.410       .  A
C311        H320   1.079       .  S
C312        C313   1.404       .  A
C312        C315   1.494       .  S
C313        C314   1.399       .  A
C313        H321   1.084       .  S
C314        H322   1.080       .  S
C315        H323   1.088       .  S
C315        C316   1.347       .  D
C316        H324   1.082       .  S
C317        H325   1.086       .  S
C317        C318   1.347       .  D
C318        H326   1.083       .  S
C327        C328   1.404       .  A
C327        C332   1.408       .  A
C327        C335   1.490       .  S
C328        C329   1.399       .  A
C328        H337   1.084       .  S
C329        C330   1.408       .  A
C329        H338   1.082       .  S
C330        C331   1.404       .  A
C330        C333   1.490       .  S
C331        C332   1.401       .  A
C331        H339   1.083       .  S
C332        H340   1.081       .  S
C333        H341   1.086       .  S
C333        C334   1.346       .  D
C334        H342   1.085       .  S
C335        H343   1.088       .  S
C335        C336   1.348       .  D
C336        H344   1.083       .  S
