geometry optimzed in LAMMPS
_audit_creation_date              2020-11-30 
_audit_creation_method            'lammps2cif' 
_symmetry_space_group_name_H-M    'P1' 
_symmetry_Int_Tables_number       1 
_symmetry_cell_setting            triclinic 
loop_ 
_symmetry_equiv_pos_as_xyz 
  x,y,z 
_cell_length_a                    30.31265417 
_cell_length_b                    30.033390329737827 
_cell_length_c                    30.204236294198203 
_cell_angle_alpha                 89.1050270480842 
_cell_angle_beta                  91.99528406948933 
_cell_angle_gamma                 91.25050065714403 
loop_ 
_atom_site_label 
_atom_site_type_symbol 
_atom_site_fract_x 
_atom_site_fract_y 
_atom_site_fract_z 
_atom_site_charge 
O1          O  0.56932126  0.54628533  0.02992120    -0.71000
O2          O  0.47479707  0.45013176  0.02991906    -0.72000
O3          O  0.56861877  0.45155163  0.02818387    -0.60600
O4          O  0.47528957  0.54440877  0.03153693    -0.69000
O5          O  0.47139206  0.54679176  0.95792509    -0.68600
O6          O  0.56478709  0.45383677  0.95457870    -0.59800
O7          O  0.47075600  0.45232961  0.95631908    -0.72300
O8          O  0.56557069  0.54872990  0.95633488    -0.71100
Cu9        Cu  0.52219896  0.49803766  0.03244791     1.04600
Cu10       Cu  0.51805369  0.50053780  0.95367476     1.04300
C11         C  0.58230458  0.56253112  0.99316759     0.95200
C12         C  0.45775505  0.43642568  0.99322802     0.94300
C13         C  0.58120410  0.43805981  0.99088352     0.86500
C14         C  0.45835038  0.55968931  0.99527047     0.92700
O15         O  0.42557539  0.93410586  0.46750062    -0.71000
O16         O  0.52457885  0.93536797  0.56032643    -0.72000
O17         O  0.43080230  0.93247899  0.56209493    -0.60600
O18         O  0.51959923  0.93679028  0.46572158    -0.69000
O19         O  0.51912165  0.01075747  0.46585931    -0.68600
O20         O  0.43056491  0.00647064  0.56197944    -0.59800
O21         O  0.52397581  0.00934734  0.56015628    -0.72300
O22         O  0.42543511  0.00808522  0.46779377    -0.71100
Cu23       Cu  0.47515483  0.93203691  0.51387608     1.04600
Cu24       Cu  0.47474567  0.01121499  0.51392572     1.04300
C25         C  0.41008864  0.97103971  0.45313600     0.95200
C26         C  0.53953346  0.97264734  0.57490718     0.94300
C27         C  0.41704754  0.96892322  0.57727145     0.86500
C28         C  0.53321762  0.97445123  0.45071312     0.92700
O29         O  0.94703828  0.45309797  0.43833302    -0.71000
O30         O  0.95398874  0.54601553  0.53343845    -0.72000
O31         O  0.95039197  0.54807058  0.43881305    -0.60600
O32         O  0.95059295  0.45131056  0.53284935    -0.69000
O33         O  0.02386234  0.45045495  0.53246868    -0.68600
O34         O  0.02365408  0.54702533  0.43864212    -0.59800
O35         O  0.02724611  0.54496131  0.53307372    -0.72300
O36         O  0.02030964  0.45226502  0.43818044    -0.71100
Cu37       Cu  0.94789980  0.49967829  0.48582674     1.04600
Cu38       Cu  0.02630851  0.49865605  0.48554073     1.04300
C39         C  0.98266267  0.43809306  0.42347396     0.95200
C40         C  0.99174344  0.55973885  0.54835721     0.94300
C41         C  0.98702340  0.56263320  0.42399705     0.86500
C42         C  0.98733656  0.43594668  0.54751226     0.92700
C43         C  0.29270753  0.28518736  0.00797965     0.82200
N44         N  0.30164146  0.24104847  0.01379382    -0.76100
C45         C  0.26787013  0.21111854  0.01906099     0.84600
N46         N  0.22593211  0.22554434  0.01820202    -0.76100
C47         C  0.21653174  0.26902410  0.01201931     0.84700
N48         N  0.25009551  0.29922315  0.00682679    -0.77800
C49         C  0.29964275  0.71049402  0.00367231     0.82200
N50         N  0.25537137  0.70130595  0.00102876    -0.76100
C51         C  0.22639679  0.73518109  0.00252996     0.84600
N52         N  0.24202685  0.77757684  0.00655545    -0.76100
C53         C  0.28599645  0.78708222  0.00918593     0.84700
N54         N  0.31483302  0.75327973  0.00767098    -0.77800
C55         C  0.27343868  0.99602062  0.73633002     0.82200
N56         N  0.23123612  0.00459595  0.72210678    -0.76100
C57         C  0.20198989  0.01947002  0.75122895     0.84600
N58         N  0.21499729  0.02526349  0.79399355    -0.76100
C59         C  0.25635712  0.01593131  0.80880168     0.84700
N60         N  0.28601237  0.00122237  0.77984951    -0.77800
O61         O  0.33020320  0.99678563  0.08650094    -0.71000
O62         O  0.33675957  0.99913099  0.95204904    -0.72000
O63         O  0.34219416  0.06608607  0.02004774    -0.60600
O64         O  0.32372733  0.93051418  0.01823102    -0.69000
O65         O  0.25158968  0.94145752  0.01189207    -0.68600
O66         O  0.26947699  0.07193724  0.01505129    -0.59800
O67         O  0.26442243  0.00870326  0.94782272    -0.72300
O68         O  0.25782536  0.00485790  0.07890471    -0.71100
Cu69       Cu  0.33608490  0.99780968  0.01945647     1.04600
Cu70       Cu  0.25866626  0.00699030  0.01321502     1.04300
C71         C  0.29249228  0.00046491  0.10370274     0.95200
C72         C  0.30109799  0.00451680  0.92886796     0.94300
C73         C  0.30778547  0.09022686  0.01811247     0.86500
C74         C  0.28396930  0.91517633  0.01459070     0.92700
C75         C  0.25387256  0.99340026  0.29266945     0.82200
N76         N  0.21065819  0.99976035  0.30177136    -0.76100
C77         C  0.18125609  0.00933352  0.26810796     0.84600
N78         N  0.19518976  0.01213420  0.22615321    -0.76100
C79         C  0.23766116  0.00532081  0.21661953     0.84700
N80         N  0.26737515  0.99593612  0.25003297    -0.77800
C81         C  0.73733007  0.28342217  0.98815712     0.82200
N82         N  0.78023815  0.29716019  0.98408449    -0.76100
C83         C  0.81238575  0.26642801  0.98265047     0.84600
N84         N  0.80137039  0.22264965  0.98544132    -0.76100
C85         C  0.75909571  0.20856762  0.98991944     0.84700
N86         N  0.72669259  0.23908734  0.99123660    -0.77800
C87         C  0.00491103  0.28632580  0.71363537     0.82200
N88         N  0.00409989  0.24149140  0.70651951    -0.76100
C89         C  0.01308281  0.21298080  0.74092494     0.84600
N90         N  0.02287608  0.22941538  0.78145100    -0.76100
C91         C  0.02310132  0.27351926  0.78911442     0.84700
N92         N  0.01394754  0.30240955  0.75510470    -0.77800
O93         O  0.94988608  0.28688715  0.98362962    -0.71000
O94         O  0.07987694  0.28772092  0.99562219    -0.72000
O95         O  0.01094488  0.28562563  0.05472141    -0.60600
O96         O  0.01875535  0.28979607  0.92442599    -0.69000
O97         O  0.01794045  0.36357161  0.92316643    -0.68600
O98         O  0.01258647  0.35928643  0.05796756    -0.59800
O99         O  0.08340664  0.36143600  0.99564231    -0.72300
O100        O  0.94801747  0.36048853  0.98591898    -0.71100
Cu101      Cu  0.01489359  0.28536165  0.98951099     1.04600
Cu102      Cu  0.01563055  0.36415389  0.99066476     1.04300
C103        C  0.92787966  0.32258644  0.98354724     0.95200
C104        C  0.10269690  0.32382707  0.99760513     0.94300
C105        C  0.01008157  0.32113520  0.07730690     0.86500
C106        C  0.01928607  0.32662129  0.90277066     0.92700
C107        C  0.98472896  0.28298322  0.26615030     0.82200
N108        N  0.98100958  0.23870166  0.27672143    -0.76100
C109        C  0.98385551  0.20796761  0.24438990     0.84600
N110        N  0.99044351  0.22171481  0.20234157    -0.76100
C111        C  0.99430583  0.26533846  0.19144122     0.84700
N112        N  0.99140754  0.29636465  0.22344924    -0.77800
C113        C  0.99504337  0.72116167  0.26517893     0.82200
N114        N  0.00345674  0.70948448  0.22284201    -0.76100
C115        C  0.00720843  0.74166096  0.19091878     0.84600
N116        N  0.00237541  0.78473757  0.20153485    -0.76100
C117        C  0.99369685  0.79673050  0.24317841     0.84700
N118        N  0.99006360  0.76483910  0.27538585    -0.77800
C119        C  0.68543948  0.98803337  0.29468323     0.82200
N120        N  0.72847850  0.98950654  0.30902711    -0.76100
C121        C  0.76109032  0.99336411  0.27942100     0.84600
N122        N  0.75017244  0.99576684  0.23543242    -0.76100
C123        C  0.70733562  0.99435833  0.22061549     0.84700
N124        N  0.67488508  0.99041878  0.25051457    -0.77800
O125        O  0.97095454  0.93195702  0.32818677    -0.71000
O126        O  0.97029805  0.06743401  0.32941661    -0.72000
O127        O  0.90348557  0.99810632  0.31738879    -0.60600
O128        O  0.03741837  0.00092675  0.33926994    -0.69000
O129        O  0.04384489  0.00400827  0.26642972    -0.68600
O130        O  0.91439194  0.99978046  0.24509920    -0.59800
O131        O  0.97835840  0.06776457  0.25677599    -0.72300
O132        O  0.98026840  0.93577177  0.25575669    -0.71100
Cu133      Cu  0.97007851  0.99954175  0.33138801     1.04600
Cu134      Cu  0.97943980  0.00188024  0.25381320     1.04300
C135        C  0.97650609  0.91271780  0.29137054     0.95200
C136        C  0.97453674  0.08883456  0.29279082     0.94300
C137        C  0.88828237  0.99844140  0.27721893     0.86500
C138        C  0.06160703  0.00315121  0.30534041     0.92700
C139        C  0.74220532  0.72103369  0.99592498     0.82200
N140        N  0.78527123  0.70956729  0.99238800    -0.76100
C141        C  0.81742894  0.74188515  0.99229207     0.84600
N142        N  0.80622991  0.78497695  0.99578306    -0.76100
C143        C  0.76375612  0.79680196  0.99943801     0.84700
N144        N  0.73141089  0.76469684  0.99944198    -0.77800
C145        C  0.00632378  0.71235553  0.70839499     0.82200
N146        N  0.00374337  0.75572031  0.69474030    -0.76100
C147        C  0.00604857  0.78879057  0.72493160     0.84600
N148        N  0.01101063  0.77802784  0.76846062    -0.76100
C149        C  0.01351061  0.73521729  0.78258884     0.84700
N150        N  0.01105898  0.70195126  0.75244714    -0.77800
C151        C  0.70680603  0.98839223  0.72503411     0.82200
N152        N  0.70192349  0.99219666  0.76955345    -0.76100
C153        C  0.73831903  0.99684938  0.79689354     0.84600
N154        N  0.77883165  0.99753727  0.77944542    -0.76100
C155        C  0.78415609  0.99368691  0.73528795     0.84700
N156        N  0.74786064  0.98910800  0.70800210    -0.77800
O157        O  0.74839934  0.93634528  0.00493443    -0.71000
O158        O  0.74670093  0.06837639  0.00194617    -0.72000
O159        O  0.75414897  0.00294340  0.06966258    -0.60600
O160        O  0.74083990  0.00169546  0.93772787    -0.69000
O161        O  0.66790842  0.99924630  0.94110799    -0.68600
O162        O  0.68141613  0.00007890  0.07578497    -0.59800
O163        O  0.67393347  0.06786224  0.00682323    -0.72300
O164        O  0.67562322  0.93193325  0.00942308    -0.71100
Cu165      Cu  0.74977463  0.00245667  0.00349688     1.04600
Cu166      Cu  0.67193902  0.99974489  0.00856577     1.04300
C167        C  0.71286089  0.91293300  0.00707748     0.95200
C168        C  0.71062844  0.08937479  0.00330352     0.94300
C169        C  0.72035194  0.00138310  0.09370184     0.86500
C170        C  0.70272751  0.00008243  0.91830363     0.92700
O171        O  0.99328267  0.93169140  0.69335359    -0.71000
O172        O  0.98856383  0.06574712  0.67441688    -0.72000
O173        O  0.05727167  0.00078886  0.67493813    -0.60600
O174        O  0.92412778  0.99633354  0.69424530    -0.69000
O175        O  0.93921299  0.00550227  0.76601061    -0.68600
O176        O  0.06695892  0.01099596  0.74718640    -0.59800
O177        O  0.00072552  0.07344901  0.74670744    -0.72300
O178        O  0.00589420  0.94254849  0.76527491    -0.71100
Cu179      Cu  0.99019813  0.99826274  0.68139574     1.04600
Cu180      Cu  0.00348897  0.00841680  0.75846927     1.04300
C181        C  0.00083173  0.91635156  0.73258514     0.95200
C182        C  0.99492874  0.09069325  0.70806821     0.94300
C183        C  0.08291266  0.00705962  0.70899700     0.86500
C184        C  0.91130115  0.00016323  0.73401127     0.92700
O185        O  0.08650423  0.72383834  0.99059581    -0.71000
O186        O  0.95543848  0.72529756  0.98574395    -0.72000
O187        O  0.02065623  0.72529687  0.05362492    -0.60600
O188        O  0.02097177  0.72327373  0.92230927    -0.69000
O189        O  0.01811102  0.64948471  0.92278893    -0.68600
O190        O  0.01777636  0.65155093  0.05754022    -0.59800
O191        O  0.95090512  0.65157231  0.98804046    -0.72300
O192        O  0.08568317  0.65004675  0.99282400    -0.71100
Cu193      Cu  0.02104454  0.72668125  0.98792273     1.04600
Cu194      Cu  0.01814116  0.64781607  0.99029819     1.04300
C195        C  0.10717152  0.68726575  0.99285791     0.95200
C196        C  0.93214688  0.68938570  0.98677077     0.94300
C197        C  0.01849701  0.68931175  0.07660717     0.86500
C198        C  0.01918628  0.68660135  0.90142098     0.92700
C199        C  0.86454475  0.99866352  0.74576439    -0.14500
C200        C  0.82936782  0.99432422  0.71765952    -0.29700
H201        H  0.85920808  0.00162740  0.78096671     0.14500
H202        H  0.83375715  0.99134551  0.68232179     0.15100
C203        C  0.73628131  0.00043773  0.84551708    -0.14500
C204        C  0.69940782  0.99862293  0.86911996    -0.29700
H205        H  0.76808969  0.00397851  0.86301902     0.14500
H206        H  0.66716879  0.99522043  0.85252198     0.15100
C207        C  0.01803847  0.72755863  0.83084210    -0.14500
C208        C  0.01758305  0.68791503  0.85219561    -0.29700
H209        H  0.02065884  0.75777829  0.85021882     0.14500
H210        H  0.01476208  0.65710279  0.83384573     0.15100
C211        C  0.00245158  0.83624854  0.71122180    -0.14500
C212        C  0.00403321  0.86829201  0.74198964    -0.29700
H213        H  0.99836910  0.84485185  0.67629185     0.14500
H214        H  0.00843555  0.85915341  0.77677854     0.15100
C215        C  0.86481464  0.73277767  0.98866939    -0.14500
C216        C  0.88327415  0.69244771  0.98748924    -0.29700
H217        H  0.88616328  0.76234153  0.98801087     0.14500
H218        H  0.86290989  0.66225507  0.98851679     0.15100
C219        C  0.75523768  0.84480370  0.00268181    -0.14500
C220        C  0.71559410  0.86360252  0.00609068    -0.29700
H221        H  0.78456751  0.86622890  0.00160522     0.14500
H222        H  0.68566579  0.84312883  0.00722147     0.15100
C223        C  0.84057305  0.99739961  0.26567825    -0.14500
C224        C  0.80814623  0.99467187  0.29490108    -0.29700
H225        H  0.83196956  0.99870481  0.23046894     0.14500
H226        H  0.81614556  0.99310078  0.33020297     0.15100
C227        C  0.69623659  0.99657014  0.17226147    -0.14500
C228        C  0.72810435  0.00075979  0.14235736    -0.29700
H229        H  0.66181312  0.99417756  0.16117874     0.14500
H230        H  0.76241383  0.00299050  0.15391083     0.15100
C231        C  0.98867602  0.84462732  0.25083120    -0.14500
C232        C  0.97944891  0.86353809  0.28938799    -0.29700
H233        H  0.99323628  0.86584135  0.22178151     0.14500
H234        H  0.97501898  0.84330371  0.31907887     0.15100
C235        C  0.01563063  0.73245404  0.14425081    -0.14500
C236        C  0.01542044  0.69217689  0.12541831    -0.29700
H237        H  0.02010018  0.76198971  0.12345952     0.14500
H238        H  0.01071275  0.66204601  0.14521474     0.15100
C239        C  0.98042421  0.15949347  0.25217089    -0.14500
C240        C  0.97559667  0.13831017  0.29131542    -0.29700
H241        H  0.98279731  0.13978306  0.22248863     0.14500
H242        H  0.97323107  0.15694101  0.32163894     0.15100
C243        C  0.00528863  0.31706034  0.12597986    -0.14500
C244        C  0.00131318  0.27619335  0.14448275    -0.29700
H245        H  0.00394926  0.34670290  0.14598618     0.14500
H246        H  0.00267465  0.24725580  0.12342349     0.15100
C247        C  0.02021116  0.32503523  0.85374058    -0.14500
C248        C  0.03206601  0.28688440  0.83523335    -0.29700
H249        H  0.00782231  0.35260430  0.83358302     0.14500
H250        H  0.04480976  0.26039946  0.85674270     0.15100
C251        C  0.01236375  0.16417545  0.73741135    -0.14500
C252        C  0.99645564  0.13994577  0.70316233    -0.29700
H253        H  0.02445390  0.14685183  0.76717479     0.14500
H254        H  0.98471129  0.15590707  0.67258290     0.15100
C255        C  0.85965368  0.27788161  0.97889829    -0.14500
C256        C  0.87884207  0.31869042  0.98195312    -0.29700
H257        H  0.88049172  0.24920499  0.97554297     0.14500
H258        H  0.85907843  0.34807270  0.98546555     0.15100
C259        C  0.75107060  0.16000923  0.99331080    -0.14500
C260        C  0.71221415  0.13886859  0.00024479    -0.29700
H261        H  0.78039651  0.14025291  0.99018442     0.14500
H262        H  0.68223017  0.15755212  0.00329884     0.15100
C263        C  0.11058225  0.00394107  0.30973755    -0.14500
C264        C  0.13377637  0.01552837  0.27398816    -0.29700
H265        H  0.12703598  0.99268425  0.34027274     0.14500
H266        H  0.11597307  0.02727921  0.24432462     0.15100
C267        C  0.28813100  0.99955985  0.15253391    -0.14500
C268        C  0.24862540  0.00734760  0.16947097    -0.29700
H269        H  0.31653129  0.99220208  0.17412540     0.14500
H270        H  0.22100028  0.01508123  0.14692577     0.15100
C271        C  0.26560662  0.02015474  0.85680435    -0.14500
C272        C  0.30126998  0.00526551  0.87971677    -0.29700
H273        H  0.23889582  0.03397743  0.87499687     0.14500
H274        H  0.32901839  0.99201047  0.86277029     0.15100
C275        C  0.15535493  0.02762243  0.73960467    -0.14500
C276        C  0.13162270  0.00882082  0.70607224    -0.29700
H277        H  0.13803349  0.04548061  0.76457100     0.14500
H278        H  0.14748742  0.99113481  0.68009306     0.15100
C279        C  0.30201504  0.83404659  0.01268766    -0.14500
C280        C  0.27294063  0.86718218  0.01320019    -0.29700
H281        H  0.33726503  0.84142425  0.01402980     0.14500
H282        H  0.23782318  0.85902962  0.01157577     0.15100
C283        C  0.17797482  0.72829102  0.99921644    -0.14500
C284        C  0.15626085  0.68877005  0.99585895    -0.29700
H285        H  0.15900168  0.75857535  0.99975617     0.14500
H286        H  0.17432465  0.65793194  0.99578581     0.15100
C287        C  0.31089442  0.13975629  0.01879123    -0.14500
C288        C  0.27371201  0.16263853  0.02416685    -0.29700
H289        H  0.34213703  0.15694592  0.01317460     0.14500
H290        H  0.24329752  0.14409579  0.03046997     0.15100
C291        C  0.16932718  0.28028547  0.00960138    -0.14500
C292        C  0.15165027  0.32067200  0.00210513    -0.29700
H293        H  0.14719433  0.25164178  0.01355798     0.14500
H294        H  0.17255799  0.35026163  0.99880360     0.15100
C295        C  0.99442084  0.59197120  0.58319416    -0.16600
C296        C  0.99718683  0.61863050  0.61277205     0.07500
C297        C  0.00065656  0.65005630  0.64727347     0.09300
C298        C  0.00346362  0.67768623  0.67594950    -0.17400
C299        C  0.99757528  0.31688668  0.67706796    -0.16600
C300        C  0.99311157  0.34315007  0.64662973     0.07500
C301        C  0.98952661  0.37464851  0.61139866     0.09300
C302        C  0.98778613  0.40219967  0.58185972    -0.17400
C303        C  0.98713180  0.59700229  0.39021165    -0.16600
C304        C  0.98799105  0.62561700  0.36165391     0.07500
C305        C  0.98975843  0.65895812  0.32802423     0.09300
C306        C  0.99184661  0.68732276  0.29930610    -0.17400
C307        C  0.98052943  0.40466740  0.38975782    -0.16600
C308        C  0.97998990  0.37653241  0.36156216     0.07500
C309        C  0.98063050  0.34362082  0.32851876     0.09300
C310        C  0.98208946  0.31575782  0.30020443    -0.17400
C311        C  0.66871091  0.98352932  0.69561239    -0.16600
C312        C  0.63814185  0.97967946  0.66913736     0.07500
C313        C  0.60344700  0.97582137  0.63676112     0.09300
C314        C  0.57427875  0.97355335  0.60856958    -0.17400
C315        C  0.38618004  0.96799143  0.61237124    -0.16600
C316        C  0.36067569  0.96994696  0.64206114     0.07500
C317        C  0.33087097  0.97556334  0.67643779     0.09300
C318        C  0.30506352  0.98327913  0.70473538    -0.17400
C319        C  0.56491068  0.97609551  0.41626134    -0.16600
C320        C  0.59166096  0.97811493  0.38750509     0.07500
C321        C  0.62342711  0.98109855  0.35421011     0.09300
C322        C  0.65117801  0.98407768  0.32647611    -0.17400
C323        C  0.37504931  0.97125517  0.41974785    -0.16600
C324        C  0.34616725  0.97372276  0.39129246     0.07500
C325        C  0.31306947  0.97882905  0.35747044     0.09300
C326        C  0.28557962  0.98472994  0.32817261    -0.17400
C327        C  0.61638760  0.59675233  0.99335497    -0.16600
C328        C  0.64518759  0.62525939  0.99397384     0.07500
C329        C  0.67906830  0.65856103  0.99487221     0.09300
C330        C  0.70794515  0.68698365  0.99551306    -0.17400
C331        C  0.70317472  0.31589332  0.98888120    -0.16600
C332        C  0.67490570  0.34358834  0.98913479     0.07500
C333        C  0.64212455  0.37640055  0.98937228     0.09300
C334        C  0.61430954  0.40454817  0.98981979    -0.17400
C335        C  0.42354668  0.59131360  0.99655515    -0.16600
C336        C  0.39376315  0.61720566  0.99796465     0.07500
C337        C  0.35916539  0.64784396  0.99988628     0.09300
C338        C  0.33083400  0.67530014  0.00162680    -0.17400
C339        C  0.32839915  0.31705750  0.00289552    -0.16600
C340        C  0.35837024  0.34387292  0.99914823     0.07500
C341        C  0.39340141  0.37554460  0.99561520     0.09300
C342        C  0.42304535  0.40297558  0.99371630    -0.17400
loop_ 
_geom_bond_atom_site_label_1 
_geom_bond_atom_site_label_2 
_geom_bond_distance 
_geom_bond_site_symmetry_2 
_ccdc_geom_bond_type 
O1           Cu9   2.015       .  S
O1           C11   1.277   1_554  A
O2           Cu9   2.011       .  S
O2           C12   1.277   1_554  A
O3           Cu9   2.012       .  S
O3           C13   1.277   1_554  A
O4           Cu9   2.011       .  S
O4           C14   1.277   1_554  A
O5          Cu10   2.013       .  S
O5           C14   1.277       .  A
O6          Cu10   2.014       .  S
O6           C13   1.277       .  A
O7          Cu10   2.018       .  S
O7           C12   1.277       .  A
O8          Cu10   2.020       .  S
O8           C11   1.278       .  A
Cu9         Cu10   2.378   1_554  S
C11         C327   1.441       .  S
C12         C342   1.439       .  S
C13         C334   1.438       .  S
C14         C335   1.437       .  S
O15         Cu23   2.020       .  S
O15          C25   1.278       .  A
O16         Cu23   2.019       .  S
O16          C26   1.278       .  A
O17         Cu23   2.017       .  S
O17          C27   1.277       .  A
O18         Cu23   2.018       .  S
O18          C28   1.277       .  A
O19         Cu24   2.014       .  S
O19          C28   1.277   1_545  A
O20         Cu24   2.010       .  S
O20          C27   1.277   1_545  A
O21         Cu24   2.009       .  S
O21          C26   1.276   1_545  A
O22         Cu24   2.009       .  S
O22          C25   1.276   1_545  A
Cu23        Cu24   2.378   1_565  S
C25         C323   1.439       .  S
C26         C314   1.438       .  S
C27         C315   1.438       .  S
C28         C319   1.440       .  S
O29         Cu37   2.018       .  S
O29          C39   1.277       .  A
O30         Cu37   2.018       .  S
O30          C40   1.277       .  A
O31         Cu37   2.018       .  S
O31          C41   1.277       .  A
O32         Cu37   2.017       .  S
O32          C42   1.277       .  A
O33         Cu38   2.012       .  S
O33          C42   1.277   1_455  A
O34         Cu38   2.014       .  S
O34          C41   1.277   1_455  A
O35         Cu38   2.013       .  S
O35          C40   1.277   1_455  A
O36         Cu38   2.013       .  S
O36          C39   1.277   1_455  A
Cu37        Cu38   2.378   1_655  S
C39         C307   1.440       .  S
C40         C295   1.440       .  S
C41         C303   1.440       .  S
C42         C302   1.439       .  S
C43         C339   1.439       .  S
C43          N44   1.366       .  A
C43          N48   1.367       .  A
N44          C45   1.359       .  A
C45          N46   1.351       .  A
C45         C288   1.476       .  S
N46          C47   1.351       .  A
C47          N48   1.360       .  A
C47         C291   1.477       .  S
C49         C338   1.437       .  S
C49          N50   1.364       .  A
C49          N54   1.361       .  A
N50          C51   1.361       .  A
C51          N52   1.355       .  A
C51         C283   1.478   1_554  S
N52          C53   1.357       .  A
C53          N54   1.356       .  A
C53         C279   1.486       .  S
C55         C318   1.438       .  S
C55          N56   1.364   1_565  A
C55          N60   1.366   1_565  A
N56          C57   1.358       .  A
C57          N58   1.350       .  A
C57         C275   1.469       .  S
N58          C59   1.350       .  A
C59          N60   1.361       .  A
C59         C271   1.474       .  S
O61         Cu69   2.039       .  S
O61          C71   1.280   1_565  A
O62         Cu69   2.037   1_556  S
O62          C72   1.279   1_565  A
O63         Cu69   2.055   1_545  S
O63          C73   1.282       .  A
O64         Cu69   2.048       .  S
O64          C74   1.283       .  A
O65         Cu70   1.976   1_565  S
O65          C74   1.273       .  A
O66         Cu70   1.972       .  S
O66          C73   1.275       .  A
O67         Cu70   1.989   1_556  S
O67          C72   1.278       .  A
O68         Cu70   1.985       .  S
O68          C71   1.277       .  A
Cu69        Cu70   2.370   1_565  S
C71         C267   1.485   1_545  S
C72         C272   1.485       .  S
C73         C287   1.489       .  S
C74         C280   1.473       .  S
C75         C326   1.439       .  S
C75          N76   1.366       .  A
C75          N80   1.365       .  A
N76          C77   1.360   1_565  A
C77          N78   1.350       .  A
C77         C264   1.472       .  S
N78          C79   1.350       .  A
C79          N80   1.359   1_545  A
C79         C268   1.474       .  S
C81         C331   1.439       .  S
C81          N82   1.365       .  A
C81          N86   1.366       .  A
N82          C83   1.359       .  A
C83          N84   1.352       .  A
C83         C255   1.474       .  S
N84          C85   1.351       .  A
C85          N86   1.360       .  A
C85         C259   1.476       .  S
C87         C299   1.439   1_455  S
C87          N88   1.366       .  A
C87          N92   1.366       .  A
N88          C89   1.360       .  A
C89          N90   1.348       .  A
C89         C251   1.471       .  S
N90          C91   1.348       .  A
C91          N92   1.359       .  A
C91         C248   1.470       .  S
O93        Cu101   1.974   1_655  S
O93         C103   1.275       .  A
O94        Cu101   1.972       .  S
O94         C104   1.275       .  A
O95        Cu101   1.978   1_554  S
O95         C105   1.276       .  A
O96        Cu101   1.976       .  S
O96         C106   1.276       .  A
O97        Cu102   2.043       .  S
O97         C106   1.280       .  A
O98        Cu102   2.041   1_554  S
O98         C105   1.280       .  A
O99        Cu102   2.058       .  S
O99         C104   1.283       .  A
O100       Cu102   2.050   1_655  S
O100        C103   1.282       .  A
Cu101      Cu102   2.367       .  S
C103        C256   1.488       .  S
C104        C292   1.490   1_556  S
C105        C243   1.485       .  S
C106        C247   1.484       .  S
C107        C310   1.440       .  S
C107        N108   1.366       .  A
C107        N112   1.365       .  A
N108        C109   1.360       .  A
C109        N110   1.349       .  A
C109        C239   1.473       .  S
N110        C111   1.350       .  A
C111        N112   1.360       .  A
C111        C244   1.472   1_655  S
C113        C306   1.440       .  S
C113        N114   1.365   1_655  A
C113        N118   1.365       .  A
N114        C115   1.360       .  A
C115        N116   1.350       .  A
C115        C235   1.473       .  S
N116        C117   1.350   1_455  A
C117        N118   1.360       .  A
C117        C231   1.473       .  S
C119        C322   1.441       .  S
C119        N120   1.360       .  A
C119        N124   1.362       .  A
N120        C121   1.358       .  A
C121        N122   1.359       .  A
C121        C224   1.485       .  S
N122        C123   1.359       .  A
C123        N124   1.360       .  A
C123        C227   1.488       .  S
O125       Cu133   2.034       .  S
O125        C135   1.279       .  A
O126       Cu133   2.039   1_545  S
O126        C136   1.280       .  A
O127       Cu133   2.048       .  S
O127        C137   1.283       .  A
O128       Cu133   2.046   1_445  S
O128        C138   1.281       .  A
O129       Cu134   1.976   1_455  S
O129        C138   1.276       .  A
O130       Cu134   1.980   1_565  S
O130        C137   1.273       .  A
O131       Cu134   1.983       .  S
O131        C136   1.277       .  A
O132       Cu134   1.986   1_565  S
O132        C135   1.277       .  A
Cu133      Cu134   2.370   1_565  S
C135        C232   1.484       .  S
C136        C240   1.486       .  S
C137        C223   1.476       .  S
C138        C263   1.486       .  S
C139        C330   1.441       .  S
C139        N140   1.366       .  A
C139        N144   1.365       .  A
N140        C141   1.361       .  A
C141        N142   1.352       .  A
C141        C215   1.476       .  S
N142        C143   1.352       .  A
C143        N144   1.360       .  A
C143        C219   1.475   1_556  S
C145        C298   1.440       .  S
C145        N146   1.363       .  A
C145        N150   1.365       .  A
N146        C147   1.358       .  A
C147        N148   1.353       .  A
C147        C211   1.483       .  S
N148        C149   1.351       .  A
C149        N150   1.361       .  A
C149        C207   1.474       .  S
C151        C311   1.439       .  S
C151        N152   1.365       .  A
C151        N156   1.363       .  A
N152        C153   1.361       .  A
C153        N154   1.353       .  A
C153        C203   1.478   1_565  S
N154        C155   1.356       .  A
C155        N156   1.357       .  A
C155        C200   1.487       .  S
O157       Cu165   1.985   1_565  S
O157        C167   1.277       .  A
O158       Cu165   1.984       .  S
O158        C168   1.276       .  A
O159       Cu165   1.999       .  S
O159        C169   1.276       .  A
O160       Cu165   1.996   1_556  S
O160        C170   1.278       .  A
O161       Cu166   2.037   1_556  S
O161        C170   1.280   1_565  A
O162       Cu166   2.041   1_545  S
O162        C169   1.281       .  A
O163       Cu166   2.045   1_545  S
O163        C168   1.281       .  A
O164       Cu166   2.042       .  S
O164        C167   1.281       .  A
Cu165      Cu166   2.369   1_545  S
C167        C220   1.487       .  S
C168        C260   1.488       .  S
C169        C228   1.480       .  S
C170        C204   1.487   1_545  S
O171       Cu179   2.030       .  S
O171        C181   1.280   1_655  A
O172       Cu179   2.036   1_545  S
O172        C182   1.279       .  A
O173       Cu179   2.049   1_445  S
O173        C183   1.281       .  A
O174       Cu179   2.053       .  S
O174        C184   1.283   1_565  A
O175       Cu180   1.969   1_655  S
O175        C184   1.272       .  A
O176       Cu180   1.965       .  S
O176        C183   1.274       .  A
O177       Cu180   1.983       .  S
O177        C182   1.277   1_455  A
O178       Cu180   1.988   1_565  S
O178        C181   1.275       .  A
Cu179      Cu180   2.372   1_665  S
C181        C212   1.471       .  S
C182        C252   1.484       .  S
C183        C276   1.482       .  S
C184        C199   1.473   1_545  S
O185       Cu193   1.987       .  S
O185        C195   1.276       .  A
O186       Cu193   1.987   1_655  S
O186        C196   1.277       .  A
O187       Cu193   1.985   1_554  S
O187        C197   1.277       .  A
O188       Cu193   1.986       .  S
O188        C198   1.277       .  A
O189       Cu194   2.039       .  S
O189        C198   1.280       .  A
O190       Cu194   2.036   1_554  S
O190        C197   1.279       .  A
O191       Cu194   2.042   1_655  S
O191        C196   1.281       .  A
O192       Cu194   2.046       .  S
O192        C195   1.281       .  A
Cu193      Cu194   2.368       .  S
C195        C284   1.487       .  S
C196        C216   1.487       .  S
C197        C236   1.484       .  S
C198        C208   1.486       .  S
C199        C200   1.345       .  D
C199        H201   1.086   1_565  S
C200        H202   1.086       .  S
C203        C204   1.346   1_545  D
C203        H205   1.087       .  S
C204        H206   1.086       .  S
C207        C208   1.345       .  D
C207        H209   1.088       .  S
C208        H210   1.086       .  S
C211        C212   1.347       .  D
C211        H213   1.086   1_455  S
C212        H214   1.086       .  S
C215        C216   1.347       .  D
C215        H217   1.088       .  S
C216        H218   1.086       .  S
C219        C220   1.347       .  D
C219        H221   1.087       .  S
C220        H222   1.086       .  S
C223        C224   1.344       .  D
C223        H225   1.086       .  S
C224        H226   1.086       .  S
C227        C228   1.348   1_565  D
C227        H229   1.086       .  S
C228        H230   1.086       .  S
C231        C232   1.344       .  D
C231        H233   1.087       .  S
C232        H234   1.086       .  S
C235        C236   1.345       .  D
C235        H237   1.088       .  S
C236        H238   1.086       .  S
C239        C240   1.345       .  D
C239        H241   1.087       .  S
C240        H242   1.086       .  S
C243        C244   1.345       .  D
C243        H245   1.086       .  S
C244        H246   1.087       .  S
C247        C248   1.344       .  D
C247        H249   1.086       .  S
C248        H250   1.088       .  S
C251        C252   1.344   1_455  D
C251        H253   1.088       .  S
C252        H254   1.086       .  S
C255        C256   1.348       .  D
C255        H257   1.087       .  S
C256        H258   1.086       .  S
C259        C260   1.347   1_556  D
C259        H261   1.087       .  S
C260        H262   1.086       .  S
C263        C264   1.346       .  D
C263        H265   1.086   1_545  S
C264        H266   1.088       .  S
C267        C268   1.345   1_565  D
C267        H269   1.086       .  S
C268        H270   1.088       .  S
C271        C272   1.344       .  D
C271        H273   1.087       .  S
C272        H274   1.086   1_545  S
C275        C276   1.346       .  D
C275        H277   1.088       .  S
C276        H278   1.086   1_545  S
C279        C280   1.344       .  D
C279        H281   1.086       .  S
C280        H282   1.087       .  S
C283        C284   1.348       .  D
C283        H285   1.087       .  S
C284        H286   1.086       .  S
C287        C288   1.349       .  D
C287        H289   1.086       .  S
C288        H290   1.088       .  S
C291        C292   1.349       .  D
C291        H293   1.087       .  S
C292        H294   1.086   1_554  S
C295        C296   1.208       .  T
C296        C297   1.417   1_655  S
C297        C298   1.208       .  T
C299        C300   1.208       .  T
C300        C301   1.416       .  S
C301        C302   1.208       .  T
C303        C304   1.209       .  T
C304        C305   1.417       .  S
C305        C306   1.209       .  T
C307        C308   1.208       .  T
C308        C309   1.417       .  S
C309        C310   1.208       .  T
C311        C312   1.208       .  T
C312        C313   1.415       .  S
C313        C314   1.208       .  T
C315        C316   1.207       .  T
C316        C317   1.414       .  S
C317        C318   1.207       .  T
C319        C320   1.209       .  T
C320        C321   1.417       .  S
C321        C322   1.209       .  T
C323        C324   1.208       .  T
C324        C325   1.416       .  S
C325        C326   1.208       .  T
C327        C328   1.209       .  T
C328        C329   1.418       .  S
C329        C330   1.209       .  T
C331        C332   1.207       .  T
C332        C333   1.415       .  S
C333        C334   1.207       .  T
C335        C336   1.207       .  T
C336        C337   1.414       .  S
C337        C338   1.207   1_556  T
C339        C340   1.208   1_554  T
C340        C341   1.416       .  S
C341        C342   1.208       .  T
