geometry optimzed in LAMMPS
_audit_creation_date              2020-11-30 
_audit_creation_method            'lammps2cif' 
_symmetry_space_group_name_H-M    'P1' 
_symmetry_Int_Tables_number       1 
_symmetry_cell_setting            triclinic 
loop_ 
_symmetry_equiv_pos_as_xyz 
  x,y,z 
_cell_length_a                    26.22471471 
_cell_length_b                    26.18434499261174 
_cell_length_c                    26.12764459784813 
_cell_angle_alpha                 88.83356819820648 
_cell_angle_beta                  89.90161545760698 
_cell_angle_gamma                 89.59945543479978 
loop_ 
_atom_site_label 
_atom_site_type_symbol 
_atom_site_fract_x 
_atom_site_fract_y 
_atom_site_fract_z 
_atom_site_charge 
C1          C  0.54483771  0.64310912  0.97485885     0.79800
N2          N  0.54403430  0.59942929  0.94809674    -0.78500
C3          C  0.49994709  0.57692304  0.93528741     0.82200
N4          N  0.45552806  0.59868265  0.94977021    -0.78500
C5          C  0.45357503  0.64220692  0.97674560     0.82300
N6          N  0.49911316  0.66483080  0.98996539    -0.80200
C7          C  0.54184994  0.29120460  0.96307992     0.79800
N8          N  0.54025862  0.33869177  0.94126563    -0.78500
C9          C  0.49555806  0.36246203  0.92978038     0.82200
N10         N  0.45150379  0.33809590  0.94015885    -0.78500
C11         C  0.45053070  0.29109361  0.96223630     0.82300
N12         N  0.49617901  0.26722170  0.97434679    -0.80200
C13         C  0.67664781  0.00277968  0.46309303     0.79800
N14         N  0.63007501  0.02572512  0.46387788    -0.78500
C15         C  0.60603830  0.03643236  0.50832666     0.82200
N16         N  0.62907140  0.02367279  0.55289738    -0.78500
C17         C  0.67526924  0.00056574  0.55460726     0.82300
N18         N  0.69936038  0.98899381  0.50915742    -0.80200
C19         C  0.32426032  0.00041628  0.53880783     0.79800
N20         N  0.36776530  0.02781044  0.53893876    -0.78500
C21         C  0.39258685  0.04149941  0.49552009     0.82200
N22         N  0.37302365  0.02765203  0.45003375    -0.78500
C23         C  0.32917480  0.00064662  0.44713629     0.82300
N24         N  0.30466258  0.98628262  0.49209151    -0.80200
O25         O  0.81157161  0.03350470  0.00486610    -0.73400
O26         O  0.81045047  0.88670645  0.01363863    -0.74400
O27         O  0.80729549  0.95734485  0.93244738    -0.63000
O28         O  0.81129784  0.96293391  0.08555555    -0.71400
O29         O  0.72743069  0.96311458  0.09302714    -0.71000
O30         O  0.72316540  0.95872286  0.92988028    -0.62200
O31         O  0.72597777  0.88267621  0.01532447    -0.74700
O32         O  0.72706419  0.03847961  0.00754275    -0.73500
Cu33       Cu  0.81226829  0.96003572  0.00908428     1.04600
Cu34       Cu  0.72222729  0.96076521  0.01158099     1.04300
C35         C  0.77088359  0.05980706  0.00487223     0.92800
C36         C  0.76986405  0.86080055  0.01557006     0.91900
C37         C  0.76619529  0.95758504  0.90596880     0.84100
C38         C  0.77170957  0.96392683  0.11431027     0.90400
C39         C  0.76807060  0.96700073  0.26190460     0.79800
N40         N  0.81941893  0.96800340  0.26978242    -0.78500
C41         C  0.85186036  0.96852087  0.22973062     0.82200
N42         N  0.83317082  0.96726744  0.18184894    -0.78500
C43         C  0.78287658  0.96597964  0.17133530     0.82300
N44         N  0.74903764  0.96656032  0.21206620    -0.80200
C45         C  0.74532770  0.19865136  0.99523134     0.79800
N46         N  0.73795239  0.14739840  0.99884195    -0.78500
C47         C  0.77747059  0.11481306  0.00165945     0.82200
N48         N  0.82522063  0.13299619  0.00087480    -0.78500
C49         C  0.83573204  0.18329802  0.99715060     0.82300
N50         N  0.79507341  0.21752742  0.99391785    -0.80200
O51         O  0.06974387  0.95769634  0.72318002    -0.73400
O52         O  0.91320344  0.95587145  0.72963904    -0.74400
O53         O  0.99025641  0.03804938  0.72401006    -0.63000
O54         O  0.99211635  0.87563450  0.72319558    -0.71400
O55         O  0.99517977  0.87914540  0.80746517    -0.71000
O56         O  0.99358111  0.03243779  0.80839714    -0.62200
O57         O  0.92157642  0.95481621  0.81413797    -0.74700
O58         O  0.06739703  0.95599557  0.80806115    -0.73500
Cu59       Cu  0.99120461  0.95690744  0.72123568     1.04600
Cu60       Cu  0.99453748  0.95550910  0.81158952     1.04300
C61         C  0.09246618  0.95749589  0.76673199     0.92800
C62         C  0.89365795  0.95473642  0.77479244     0.91900
C63         C  0.99176456  0.06030542  0.76747286     0.84100
C64         C  0.99368944  0.85228552  0.76695243     0.90400
C65         C  0.98862024  0.20738669  0.75492828     0.79800
N66         N  0.98995594  0.15684049  0.73900363    -0.78500
C67         C  0.99128302  0.11770054  0.77557423     0.82200
N68         N  0.99234474  0.13050711  0.82539195    -0.78500
C69         C  0.99177690  0.17934280  0.84074801     0.82300
N70         N  0.98957974  0.21746429  0.80568785    -0.80200
C71         C  0.23141285  0.96403168  0.74150991     0.79800
N72         N  0.18026625  0.96071384  0.73371206    -0.78500
C73         C  0.14758287  0.96001042  0.77317807     0.82200
N74         N  0.16565241  0.96280697  0.82120840    -0.78500
C75         C  0.21577116  0.96640246  0.83199533     0.82300
N76         N  0.24996109  0.96725830  0.79142736    -0.80200
O77         O  0.27068909  0.96785124  0.91046899    -0.73400
O78         O  0.27649539  0.96582455  0.07305796    -0.74400
O79         O  0.27025939  0.88891454  0.99249060    -0.63000
O80         O  0.27227335  0.04551126  0.99183923    -0.71400
O81         O  0.18792125  0.04104406  0.99549725    -0.71000
O82         O  0.18578992  0.89467956  0.99390445    -0.62200
O83         O  0.19231129  0.96568697  0.07120766    -0.74700
O84         O  0.18679964  0.96985923  0.91780399    -0.73500
Cu85       Cu  0.27614174  0.96700207  0.99175545     1.04600
Cu86       Cu  0.18610086  0.96793926  0.99466246     1.04300
C87         C  0.22648080  0.96859364  0.88909203     0.92800
C88         C  0.23373219  0.96536150  0.09725647     0.91900
C89         C  0.22611040  0.86796671  0.99342260     0.84100
C90         C  0.22828758  0.06719538  0.99413215     0.90400
O91         O  0.07920858  0.96930071  0.18732355    -0.73400
O92         O  0.93204191  0.97203411  0.19316554    -0.74400
O93         O  0.00676069  0.04704027  0.19143173    -0.63000
O94         O  0.00503091  0.89480222  0.19127458    -0.71400
O95         O  0.00889084  0.88818015  0.27557507    -0.71000
O96         O  0.00922194  0.05144484  0.27561116    -0.62200
O97         O  0.93069501  0.96984756  0.27805477    -0.74700
O98         O  0.08678105  0.96839280  0.27190929    -0.73500
Cu99       Cu  0.00568505  0.97097638  0.18873536     1.04600
Cu100      Cu  0.00903494  0.96952677  0.27901720     1.04300
C101        C  0.10677957  0.96772822  0.22712155     0.92800
C102        C  0.90735175  0.97041263  0.23494267     0.91900
C103        C  0.00799664  0.07438259  0.23145699     0.84100
C104        C  0.00691909  0.86652623  0.23172574     0.90400
O105        O  0.91425145  0.23771889  0.99378145    -0.73400
O106        O  0.07670868  0.24019023  0.99135578    -0.74400
O107        O  0.99391677  0.23343385  0.91455530    -0.63000
O108        O  0.99670379  0.24036798  0.07122005    -0.71400
O109        O  0.99892796  0.15568583  0.07098162    -0.71000
O110        O  0.99582600  0.14904105  0.92409110    -0.62200
O111        O  0.07395832  0.15597721  0.99577065    -0.74700
O112        O  0.92114951  0.15370043  0.99904993    -0.73500
Cu113      Cu  0.99535015  0.24162751  0.99250166     1.04600
Cu114      Cu  0.99754509  0.15149777  0.99764963     1.04300
C115        C  0.89271627  0.19371476  0.99657251     0.92800
C116        C  0.10043336  0.19695329  0.99332160     0.91900
C117        C  0.99392948  0.18859598  0.89551830     0.84100
C118        C  0.99835398  0.19708605  0.09515436     0.90400
C119        C  0.00766245  0.22206715  0.23402489     0.79800
N120        N  0.01019294  0.17206137  0.25372837    -0.78500
C121        C  0.00675213  0.13175516  0.22034853     0.82200
N122        N  0.00222283  0.14302225  0.16996434    -0.78500
C123        C  0.00044352  0.19102979  0.15075024     0.82300
N124        N  0.00294612  0.23046121  0.18267454    -0.80200
C125        C  0.24699607  0.96420635  0.24433061     0.79800
N126        N  0.19633486  0.96444810  0.25554946    -0.78500
C127        C  0.16151431  0.96521176  0.21787326     0.82200
N128        N  0.17702485  0.96495247  0.16884486    -0.78500
C129        C  0.22651128  0.96472220  0.15494218     0.82300
N130        N  0.26295171  0.96505959  0.19330684    -0.80200
C131        C  0.24738055  0.20738999  0.99256364     0.79800
N132        N  0.25799632  0.15646236  0.99394055    -0.78500
C133        C  0.22000748  0.12230545  0.99464070     0.82200
N134        N  0.17129219  0.13881458  0.99452060    -0.78500
C135        C  0.15798214  0.18861738  0.99308814     0.82300
N136        N  0.19674887  0.22434751  0.99148631    -0.80200
O137        O  0.99849972  0.68616340  0.92579024    -0.73400
O138        O  0.00105630  0.69537669  0.08213771    -0.74400
O139        O  0.91882157  0.68710478  0.00602384    -0.63000
O140        O  0.08096130  0.69075330  0.00271187    -0.71400
O141        O  0.07394640  0.77480242  0.99779340    -0.71000
O142        O  0.92152602  0.77128226  0.99996800    -0.62200
O143        O  0.99823240  0.77975078  0.07240982    -0.74700
O144        O  0.99706657  0.77086811  0.92546628    -0.73500
Cu145      Cu  0.99993905  0.68615254  0.00440092     1.04600
Cu146      Cu  0.99759362  0.77628356  0.99863258     1.04300
C147        C  0.99749426  0.72926866  0.90158821     0.92800
C148        C  0.00005089  0.74025715  0.10109944     0.91900
C149        C  0.89518814  0.73034452  0.00397583     0.84100
C150        C  0.10239911  0.73483249  0.99985614     0.90400
C151        C  0.00772266  0.71970983  0.24110624     0.79800
N152        N  0.00422641  0.71051382  0.19035291    -0.78500
C153        C  0.00180240  0.74915154  0.15598178     0.82200
N154        N  0.00266535  0.79771326  0.17218544    -0.78500
C155        C  0.00627375  0.80950798  0.22228135     0.82300
N156        N  0.00949396  0.76978319  0.25794781    -0.80200
C157        C  0.24935834  0.72893467  0.00368361     0.79800
N158        N  0.25755179  0.77997522  0.99962788    -0.78500
C159        C  0.21857661  0.81298966  0.99501700     0.82200
N160        N  0.17048705  0.79536550  0.99477791    -0.78500
C161        C  0.15935353  0.74514095  0.99883862     0.82300
N162        N  0.19951391  0.71056487  0.00313033    -0.80200
C163        C  0.98803552  0.70476040  0.76232472     0.79800
N164        N  0.98922867  0.75499679  0.74296608    -0.78500
C165        C  0.99398385  0.79485055  0.77686239     0.82200
N166        N  0.99753835  0.78311009  0.82706167    -0.78500
C167        C  0.99636805  0.73518504  0.84601090     0.82300
N168        N  0.99156848  0.69619711  0.81387109    -0.80200
C169        C  0.75383302  0.95830503  0.75867259     0.79800
N170        N  0.73776439  0.95950554  0.80960697    -0.78500
C171        C  0.77401108  0.95645509  0.84816361     0.82200
N172        N  0.82361438  0.95395886  0.83426570    -0.78500
C173        C  0.83906569  0.95401990  0.78501180     0.82300
N174        N  0.80430229  0.95595963  0.74751053    -0.80200
C175        C  0.74854643  0.72149090  0.00984626     0.79800
N176        N  0.73882943  0.77226367  0.01445308    -0.78500
C177        C  0.77736412  0.80568636  0.01602678     0.82200
N178        N  0.82568296  0.78861132  0.01320919    -0.78500
C179        C  0.83806257  0.73897230  0.00822330     0.82300
N180        N  0.79878112  0.70401415  0.00578550    -0.80200
C181        C  0.01702395  0.41248214  0.66791499     0.79800
N182        N  0.04673815  0.41620695  0.62565682    -0.78500
C183        C  0.05930491  0.46170122  0.60397729     0.82200
N184        N  0.04144414  0.50497693  0.62516213    -0.78500
C185        C  0.01201730  0.50411623  0.66801325     0.82300
N186        N  0.99941937  0.45707902  0.68961488    -0.80200
C187        C  0.04657891  0.51476368  0.32163168     0.79800
N188        N  0.06819610  0.51067159  0.36856328    -0.78500
C189        C  0.07878195  0.46479561  0.39084447     0.82200
N190        N  0.06732322  0.42201628  0.36548317    -0.78500
C191        C  0.04537159  0.42362937  0.31864253     0.82300
N192        N  0.03393846  0.47069725  0.29644575    -0.80200
C193        C  0.09364114  0.46198497  0.44561224    -0.00600
C194        C  0.09866789  0.50788465  0.47207764    -0.12500
C195        C  0.09454894  0.50868487  0.52535103     0.01600
C196        C  0.08410624  0.46283461  0.55281414    -0.00700
C197        C  0.08964874  0.41639782  0.52725719    -0.12400
C198        C  0.09462953  0.41545084  0.47416316     0.01500
H199        H  0.10235192  0.54386634  0.45109143     0.14500
H200        H  0.08593175  0.38033200  0.54807434     0.14500
C201        C  0.09725715  0.36597456  0.45079683     0.36100
C202        C  0.10069631  0.55715035  0.54983571     0.36100
N203        N  0.09935604  0.32597566  0.43283555    -0.44200
N204        N  0.10698976  0.59646752  0.56816152    -0.44200
C205        C  0.98375278  0.65669467  0.73110506    -0.00600
C206        C  0.96450006  0.61214191  0.75606948    -0.12500
C207        C  0.97102367  0.56268510  0.73639712     0.01600
C208        C  0.99632447  0.55584923  0.68926050    -0.00700
C209        C  0.01016660  0.60113064  0.66165171    -0.12400
C210        C  0.00504080  0.65055048  0.68211149     0.01500
H211        H  0.94618735  0.61549387  0.79311421     0.14500
H212        H  0.02690068  0.59821969  0.62405262     0.14500
C213        C  0.02480354  0.69355079  0.65316255     0.36100
C214        C  0.95286251  0.52016189  0.76701217     0.36100
N215        N  0.04080712  0.72781829  0.62968536    -0.44200
N216        N  0.93802419  0.48691630  0.79265899    -0.44200
C217        C  0.01217483  0.67252638  0.27411601    -0.00600
C218        C  0.05995619  0.65916507  0.29439766    -0.12500
C219        C  0.07197124  0.60812042  0.30827289     0.01600
C220        C  0.03602651  0.56821315  0.30157936    -0.00700
C221        C  0.98763945  0.58185574  0.28271396    -0.12400
C222        C  0.97557345  0.63309791  0.26935014     0.01500
H223        H  0.08929534  0.68812235  0.29624145     0.14500
H224        H  0.95888539  0.55255987  0.27898015     0.14500
C225        C  0.92539891  0.64445938  0.24926220     0.36100
C226        C  0.12278941  0.59746713  0.32704471     0.36100
N227        N  0.88521476  0.65379416  0.23323625    -0.44200
N228        N  0.16348034  0.58901418  0.34221340    -0.44200
C229        C  0.01286930  0.26982395  0.26454820    -0.00600
C230        C  0.97882602  0.31092615  0.25378572    -0.12500
C231        C  0.98883492  0.36143841  0.26899468     0.01600
C232        C  0.03415082  0.37248850  0.29546126    -0.00700
C233        C  0.06786519  0.33119810  0.30656453    -0.12400
C234        C  0.05774255  0.28078859  0.29156759     0.01500
H235        H  0.94472530  0.30374920  0.23168813     0.14500
H236        H  0.10312411  0.33845565  0.32666115     0.14500
C237        C  0.09563110  0.24161349  0.30142769     0.36100
C238        C  0.95160581  0.40087324  0.25768375     0.36100
N239        N  0.12600635  0.21014388  0.30918080    -0.44200
N240        N  0.92171914  0.43250438  0.24865465    -0.44200
C241        C  0.98848062  0.25424693  0.72062261    -0.00600
C242        C  0.95356838  0.29392568  0.73198304    -0.12500
C243        C  0.96081910  0.34494313  0.71470114     0.01600
C244        C  0.00533988  0.35861686  0.68734250    -0.00700
C245        C  0.03875034  0.31810192  0.67359363    -0.12400
C246        C  0.03031077  0.26679234  0.68914470     0.01500
H247        H  0.92085962  0.28517108  0.75594673     0.14500
H248        H  0.07244024  0.32640897  0.65094306     0.14500
C249        C  0.06621029  0.22791154  0.67394444     0.36100
C250        C  0.92039825  0.38142284  0.72292324     0.35800
N251        N  0.09451941  0.19648919  0.66127341    -0.44200
N252        N  0.88704404  0.40994413  0.72846740    -0.44200
C253        C  0.30216443  0.98601011  0.59111403    -0.00600
C254        C  0.32529789  0.00599510  0.63579806    -0.12500
C255        C  0.30645792  0.99607630  0.68576909     0.01600
C256        C  0.26290020  0.96572690  0.69292547    -0.00700
C257        C  0.24204847  0.94290444  0.64891727    -0.12400
C258        C  0.26056903  0.95284474  0.59902792     0.01500
H259        H  0.35814123  0.03069683  0.63211097     0.14500
H260        H  0.20914257  0.91826447  0.65318070     0.14500
C261        C  0.23471238  0.92912580  0.55720477     0.36100
C262        C  0.33167248  0.01880886  0.72864327     0.36100
N263        N  0.21283603  0.90973174  0.52455487    -0.44200
N264        N  0.35224058  0.03662645  0.76306242    -0.44200
C265        C  0.31101770  0.98757937  0.39396199    -0.00600
C266        C  0.32048435  0.02264667  0.35306321    -0.12500
C267        C  0.30641872  0.01262676  0.30205823     0.01600
C268        C  0.28115154  0.96707457  0.29028665    -0.00700
C269        C  0.27405993  0.93083025  0.33052697    -0.12400
C270        C  0.28965321  0.94009835  0.38132625     0.01500
H271        H  0.33810722  0.05891902  0.36106967     0.14500
H272        H  0.25446514  0.89554654  0.32249424     0.14500
C273        C  0.28581559  0.89920033  0.41887247     0.36100
C274        C  0.31573801  0.05093378  0.26274488     0.36100
N275        N  0.28376446  0.86572102  0.44838282    -0.44200
N276        N  0.32341585  0.08129499  0.23090970    -0.44200
C277        C  0.69609361  0.98899204  0.60736747    -0.00600
C278        C  0.71004195  0.93902108  0.62230420    -0.12500
C279        C  0.72238189  0.92660139  0.67382575     0.01600
C280        C  0.72054571  0.96415730  0.71239913    -0.00700
C281        C  0.70519713  0.01366539  0.69759375    -0.12400
C282        C  0.69322036  0.02625346  0.64622650     0.01500
H283        H  0.71085436  0.90942438  0.59382343     0.14500
H284        H  0.70621787  0.04370896  0.72559826     0.14500
C285        C  0.68047875  0.07883558  0.63393061     0.36100
C286        C  0.73880796  0.87507845  0.68616878     0.36100
N287        N  0.67021587  0.12095079  0.62408096    -0.44200
N288        N  0.75198058  0.83377983  0.69607031    -0.44200
C289        C  0.69984005  0.99293403  0.41098514    -0.00600
C290        C  0.72468807  0.94649397  0.40083263    -0.12500
C291        C  0.74254100  0.93520809  0.35108824     0.01600
C292        C  0.73586238  0.97047256  0.30945652    -0.00700
C293        C  0.71033534  0.01640009  0.31937779    -0.12400
C294        C  0.69261059  0.02788996  0.36893491     0.01500
H295        H  0.72969958  0.91854117  0.43170623     0.14500
H296        H  0.70686816  0.04496561  0.28882632     0.14500
C297        C  0.66962946  0.07757448  0.37579837     0.36100
C298        C  0.76781453  0.88679160  0.34358003     0.36100
N299        N  0.65130480  0.11747183  0.38102354    -0.44200
N300        N  0.78775250  0.84777366  0.33771201    -0.44200
C301        C  0.55253769  0.05557099  0.50784841    -0.00600
C302        C  0.52948924  0.06735876  0.46042963    -0.12500
C303        C  0.47642776  0.07049547  0.45588764     0.01600
C304        C  0.44561134  0.06060372  0.49930061    -0.00700
C305        C  0.46890062  0.05903733  0.54771225    -0.12400
C306        C  0.52175652  0.05627481  0.55252544     0.01500
H307        H  0.55260256  0.07096420  0.42611443     0.14500
H308        H  0.44593118  0.05517891  0.58211725     0.14500
C309        C  0.54188899  0.05018983  0.60377821     0.36100
C310        C  0.45510791  0.08235526  0.40611773     0.36100
N311        N  0.55726995  0.04514375  0.64508620    -0.44200
N312        N  0.43843904  0.09243670  0.36616589    -0.44200
C313        C  0.59438028  0.26853998  0.97438097    -0.00600
C314        C  0.63813989  0.29089984  0.95084354    -0.12500
C315        C  0.68823161  0.27181326  0.95925846     0.01600
C316        C  0.69644074  0.22975973  0.99275581    -0.00700
C317        C  0.65304765  0.20904196  0.01794702    -0.12400
C318        C  0.60304906  0.22704201  0.00865546     0.01500
H319        H  0.63334797  0.32289678  0.92422596     0.14500
H320        H  0.65792659  0.17659217  0.04404548     0.14500
C321        C  0.56164681  0.20117376  0.03444587     0.36100
C322        C  0.72995656  0.29411020  0.93077558     0.36100
N323        N  0.52873553  0.17982598  0.05501746    -0.44200
N324        N  0.76345371  0.31190563  0.90787152    -0.44200
C325        C  0.39831505  0.26920110  0.97217676    -0.00600
C326        C  0.36136852  0.27414559  0.93299696    -0.12500
C327        C  0.30995623  0.26030955  0.94079631     0.01600
C328        C  0.29356998  0.24078592  0.98869815    -0.00700
C329        C  0.33001994  0.23765765  0.02853945    -0.12400
C330        C  0.38134834  0.25266782  0.02103610     0.01500
H331        H  0.37285399  0.28879530  0.89564830     0.14500
H332        H  0.31863015  0.22187785  0.06546928     0.14500
C333        C  0.41506916  0.25337129  0.06456797     0.36100
C334        C  0.27513742  0.26401154  0.89816106     0.36100
N335        N  0.44188049  0.25482227  0.09963647    -0.44200
N336        N  0.24711938  0.26708224  0.86405191    -0.44200
C337        C  0.59702783  0.66376782  0.98619247    -0.00600
C338        C  0.63471319  0.66027727  0.94758711    -0.12500
C339        C  0.68617507  0.67249117  0.95641572     0.01600
C340        C  0.70177714  0.68947010  0.00471021    -0.00700
C341        C  0.66447066  0.69175932  0.04382280    -0.12400
C342        C  0.61303629  0.67827253  0.03532408     0.01500
H343        H  0.62379510  0.64793738  0.90975312     0.14500
H344        H  0.67533403  0.70585888  0.08101629     0.14500
C345        C  0.57814042  0.67751587  0.07804923     0.36100
C346        C  0.72186227  0.66969408  0.91445259     0.36100
N347        N  0.55042743  0.67626586  0.11256243    -0.44200
N348        N  0.75048161  0.66716853  0.88082333    -0.44200
C349        C  0.40050922  0.66171415  0.99038221    -0.00600
C350        C  0.35736207  0.63749268  0.96857827    -0.12500
C351        C  0.30686741  0.65485363  0.97635446     0.01600
C352        C  0.29752273  0.69730725  0.00709149    -0.00700
C353        C  0.33994486  0.71898832  0.03211208    -0.12400
C354        C  0.39053794  0.70232208  0.02375227     0.01500
H355        H  0.36275206  0.60555660  0.94334345     0.14500
H356        H  0.33380672  0.75168384  0.05630836     0.14500
C357        C  0.43109135  0.72907308  0.04873657     0.36100
C358        C  0.26586125  0.63064511  0.94946210     0.36100
N359        N  0.46322991  0.75109521  0.06883001    -0.44200
N360        N  0.23296211  0.61119177  0.92794297    -0.44200
C361        C  0.49494251  0.41717758  0.91367434    -0.00600
C362        C  0.54179754  0.44222304  0.90672626    -0.12500
C363        C  0.54462518  0.49547637  0.90732225     0.01600
C364        C  0.49961116  0.52452860  0.91480674    -0.00700
C365        C  0.45240065  0.49985614  0.91183801    -0.12400
C366        C  0.44945200  0.44681383  0.91215963     0.01500
H367        H  0.57694729  0.42027001  0.90464480     0.14500
H368        H  0.41717812  0.52166893  0.91425396     0.14500
C369        C  0.39900812  0.42511845  0.91587027     0.36100
C370        C  0.59447611  0.51835297  0.90307774     0.36100
N371        N  0.35841114  0.40834062  0.91948315    -0.44200
N372        N  0.63456070  0.53634303  0.89965233    -0.44200
loop_ 
_geom_bond_atom_site_label_1 
_geom_bond_atom_site_label_2 
_geom_bond_distance 
_geom_bond_site_symmetry_2 
_ccdc_geom_bond_type 
C1            N2   1.353       .  A
C1            N6   1.384       .  A
C1          C337   1.507       .  S
N2            C3   1.347       .  A
C3            N4   1.350       .  A
C3          C364   1.483       .  S
N4            C5   1.353       .  A
C5            N6   1.384       .  A
C5          C349   1.523       .  S
C7            N8   1.358       .  A
C7           N12   1.385       .  A
C7          C313   1.523       .  S
N8            C9   1.355       .  A
C9           N10   1.348       .  A
C9          C361   1.485       .  S
N10          C11   1.349       .  A
C11          N12   1.381       .  A
C11         C325   1.508       .  S
C13          N14   1.358       .  A
C13          N18   1.384   1_545  A
C13         C289   1.516   1_545  S
N14          C15   1.354       .  A
C15          N16   1.348       .  A
C15         C301   1.487       .  S
N16          C17   1.351       .  A
C17          N18   1.382   1_545  A
C17         C277   1.508   1_545  S
C19          N20   1.352       .  A
C19          N24   1.384   1_545  A
C19         C253   1.525   1_545  S
N20          C21   1.350       .  A
C21          N22   1.353       .  A
C21         C304   1.485       .  S
N22          C23   1.357       .  A
C23          N24   1.385   1_545  A
C23         C265   1.516   1_545  S
O25         Cu33   1.925   1_545  S
O25          C35   1.266       .  A
O26         Cu33   1.922       .  S
O26          C36   1.267       .  A
O27         Cu33   2.010   1_556  S
O27          C37   1.282       .  A
O28         Cu33   2.001       .  S
O28          C38   1.281       .  A
O29         Cu34   2.135       .  S
O29          C38   1.289       .  A
O30         Cu34   2.136   1_556  S
O30          C37   1.289       .  A
O31         Cu34   2.047       .  S
O31          C36   1.282       .  A
O32         Cu34   2.040   1_545  S
O32          C35   1.282       .  A
Cu33        Cu34   2.362       .  S
C35          C47   1.453       .  S
C36         C177   1.455       .  S
C37         C171   1.525       .  S
C38          C43   1.521       .  S
C39          N40   1.363       .  A
C39          N44   1.396       .  A
C39         C292   1.505       .  S
N40          C41   1.347       .  A
C41          N42   1.346       .  A
C41         C102   1.463       .  S
N42          C43   1.349       .  A
C43          N44   1.385       .  A
C45          N46   1.359       .  A
C45          N50   1.398       .  A
C45         C316   1.515       .  S
N46          C47   1.339   1_556  A
C47          N48   1.343       .  A
N48          C49   1.349   1_554  A
C49          N50   1.390       .  A
C49         C115   1.521       .  S
O51         Cu59   2.061   1_455  S
O51          C61   1.285       .  A
O52         Cu59   2.057       .  S
O52          C62   1.285       .  A
O53         Cu59   2.127   1_545  S
O53          C63   1.288       .  A
O54         Cu59   2.128       .  S
O54          C64   1.286       .  A
O55         Cu60   2.005       .  S
O55          C64   1.284       .  A
O56         Cu60   2.014   1_545  S
O56          C63   1.283       .  A
O57         Cu60   1.915       .  S
O57          C62   1.263       .  A
O58         Cu60   1.913   1_455  S
O58          C61   1.263       .  A
Cu59        Cu60   2.362       .  S
C61          C73   1.458       .  S
C62         C173   1.456       .  S
C63          C67   1.522       .  S
C64         C165   1.521       .  S
C65          N66   1.396       .  A
C65          N70   1.358       .  A
C65         C241   1.505       .  S
N66          C67   1.387       .  A
C67          N68   1.351       .  A
N68          C69   1.348       .  A
C69          N70   1.342       .  A
C69         C117   1.457       .  S
C71          N72   1.361       .  A
C71          N76   1.397       .  A
C71         C256   1.513       .  S
N72          C73   1.340       .  A
C73          N74   1.346       .  A
N74          C75   1.349       .  A
C75          N76   1.387       .  A
C75          C87   1.521       .  S
O77         Cu85   2.129       .  S
O77          C87   1.288       .  A
O78         Cu85   2.124   1_554  S
O78          C88   1.286       .  A
O79         Cu85   2.051       .  S
O79          C89   1.285       .  A
O80         Cu85   2.058   1_545  S
O80          C90   1.284       .  A
O81         Cu86   1.916   1_545  S
O81          C90   1.265       .  A
O82         Cu86   1.919       .  S
O82          C89   1.264       .  A
O83         Cu86   2.006   1_554  S
O83          C88   1.283       .  A
O84         Cu86   2.008       .  S
O84          C87   1.282       .  A
Cu85        Cu86   2.362       .  S
C88         C129   1.518       .  S
C89         C159   1.454       .  S
C90         C133   1.458       .  S
O91         Cu99   1.929       .  S
O91         C101   1.267       .  A
O92         Cu99   1.935   1_655  S
O92         C102   1.268       .  A
O93         Cu99   1.995   1_545  S
O93         C103   1.280       .  A
O94         Cu99   1.995       .  S
O94         C104   1.279       .  A
O95        Cu100   2.134       .  S
O95         C104   1.290       .  A
O96        Cu100   2.145   1_545  S
O96         C103   1.290       .  A
O97        Cu100   2.055   1_655  S
O97         C102   1.283       .  A
O98        Cu100   2.047       .  S
O98         C101   1.282       .  A
Cu99       Cu100   2.360       .  S
C101        C127   1.456       .  S
C103        C121   1.524       .  S
C104        C155   1.518       .  S
O105       Cu113   2.130       .  S
O105        C115   1.287       .  A
O106       Cu113   2.134   1_455  S
O106        C116   1.288       .  A
O107       Cu113   2.053       .  S
O107        C117   1.284       .  A
O108       Cu113   2.057   1_554  S
O108        C118   1.284       .  A
O109       Cu114   1.922   1_554  S
O109        C118   1.266       .  A
O110       Cu114   1.925       .  S
O110        C117   1.265       .  A
O111       Cu114   2.009   1_455  S
O111        C116   1.282       .  A
O112       Cu114   2.004       .  S
O112        C115   1.282       .  A
Cu113      Cu114   2.361       .  S
C116        C135   1.523       .  S
C118        C123   1.459   1_655  S
C119        N120   1.398       .  A
C119        N124   1.361       .  A
C119        C229   1.504       .  S
N120        C121   1.386       .  A
C121        N122   1.348       .  A
N122        C123   1.345       .  A
C123        N124   1.342       .  A
C125        N126   1.360       .  A
C125        N130   1.396       .  A
C125        C268   1.503       .  S
N126        C127   1.344       .  A
C127        N128   1.343       .  A
N128        C129   1.347       .  A
C129        N130   1.386       .  A
C131        N132   1.360       .  A
C131        N136   1.397       .  A
C131        C328   1.501       .  S
N132        C133   1.343       .  A
C133        N134   1.346       .  A
N134        C135   1.347       .  A
C135        N136   1.386       .  A
O137       Cu145   2.054   1_556  S
O137        C147   1.283       .  A
O138       Cu145   2.051   1_455  S
O138        C148   1.285       .  A
O139       Cu145   2.128       .  S
O139        C149   1.287       .  A
O140       Cu145   2.129   1_455  S
O140        C150   1.288   1_554  A
O141       Cu146   2.003   1_455  S
O141        C150   1.281       .  A
O142       Cu146   2.000       .  S
O142        C149   1.282   1_556  A
O143       Cu146   1.932   1_554  S
O143        C148   1.265   1_655  A
O144       Cu146   1.920       .  S
O144        C147   1.266       .  A
Cu145      Cu146   2.362   1_554  S
C147        C167   1.458       .  S
C148        C153   1.458       .  S
C149        C179   1.518       .  S
C150        C161   1.520       .  S
C151        N152   1.356       .  A
C151        N156   1.393       .  A
C151        C217   1.496       .  S
N152        C153   1.340       .  A
C153        N154   1.349       .  A
N154        C155   1.355       .  A
C155        N156   1.385       .  A
C157        N158   1.357   1_554  A
C157        N162   1.396       .  A
C157        C352   1.507       .  S
N158        C159   1.338       .  A
C159        N160   1.346       .  A
N160        C161   1.351       .  A
C161        N162   1.387   1_556  A
C163        N164   1.400       .  A
C163        N168   1.364       .  A
C163        C205   1.519       .  S
N164        C165   1.389       .  A
C165        N166   1.344       .  A
N166        C167   1.340       .  A
C167        N168   1.342       .  A
C169        N170   1.396       .  A
C169        N174   1.356       .  A
C169        C280   1.497       .  S
N170        C171   1.387       .  A
C171        N172   1.351       .  A
N172        C173   1.348       .  A
C173        N174   1.339       .  A
C175        N176   1.360       .  A
C175        N180   1.396       .  A
C175        C340   1.498       .  S
N176        C177   1.343       .  A
C177        N178   1.343       .  A
N178        C179   1.346       .  A
C179        N180   1.385       .  A
C181        N182   1.353       .  A
C181        N186   1.384   1_455  A
C181        C244   1.522       .  S
N182        C183   1.351       .  A
C183        N184   1.352       .  A
C183        C196   1.485       .  S
N184        C185   1.359       .  A
C185        N186   1.386   1_455  A
C185        C208   1.528   1_455  S
C187        N188   1.354       .  A
C187        N192   1.382       .  A
C187        C220   1.508       .  S
N188        C189   1.351       .  A
C189        N190   1.349       .  A
C189        C193   1.484       .  S
N190        C191   1.353       .  A
C191        N192   1.383       .  A
C191        C232   1.512       .  S
C193        C194   1.406       .  A
C193        C198   1.416       .  A
C194        C195   1.396       .  A
C194        H199   1.085       .  S
C195        C196   1.414       .  A
C195        C202   1.443       .  S
C196        C197   1.406       .  A
C197        C198   1.394       .  A
C197        H200   1.085       .  S
C198        C201   1.445       .  S
C201        N203   1.157       .  T
C202        N204   1.157       .  T
C205        C206   1.420       .  A
C205        C210   1.407   1_655  A
C206        C207   1.412       .  A
C206        H211   1.085       .  S
C207        C208   1.412       .  A
C207        C214   1.441       .  S
C208        C209   1.424   1_655  A
C209        C210   1.416       .  A
C209        H212   1.079       .  S
C210        C213   1.442       .  S
C213        N215   1.157       .  T
C214        N216   1.157       .  T
C217        C218   1.401       .  A
C217        C222   1.422   1_455  A
C218        C219   1.411       .  A
C218        H223   1.086       .  S
C219        C220   1.426       .  A
C219        C226   1.444       .  S
C220        C221   1.403   1_455  A
C221        C222   1.413       .  A
C221        H224   1.085       .  S
C222        C225   1.444       .  S
C225        N227   1.157       .  T
C226        N228   1.157       .  T
C229        C230   1.418   1_455  A
C229        C234   1.408       .  A
C230        C231   1.415       .  A
C230        H235   1.085       .  S
C231        C232   1.411   1_655  A
C231        C238   1.443       .  S
C232        C233   1.418       .  A
C233        C234   1.412       .  A
C233        H236   1.084       .  S
C234        C237   1.443       .  S
C237        N239   1.157       .  T
C238        N240   1.157       .  T
C241        C242   1.416       .  A
C241        C246   1.407   1_655  A
C242        C243   1.415       .  A
C242        H247   1.084       .  S
C243        C244   1.412   1_655  A
C243        C250   1.441       .  S
C244        C245   1.423       .  A
C245        C246   1.414       .  A
C245        H248   1.083       .  S
C246        C249   1.443       .  S
C249        N251   1.157       .  T
C250        N252   1.157       .  T
C253        C254   1.427   1_565  A
C253        C258   1.411       .  A
C254        C255   1.415   1_545  A
C254        H259   1.084       .  S
C255        C256   1.406       .  A
C255        C262   1.443   1_565  S
C256        C257   1.419       .  A
C257        C258   1.410       .  A
C257        H260   1.085       .  S
C258        C261   1.441       .  S
C261        N263   1.157       .  T
C262        N264   1.157       .  T
C265        C266   1.417   1_565  A
C265        C270   1.413       .  A
C266        C267   1.414       .  A
C266        H271   1.083       .  S
C267        C268   1.408   1_545  A
C267        C274   1.443       .  S
C268        C269   1.415       .  A
C269        C270   1.416       .  A
C269        H272   1.085       .  S
C270        C273   1.441       .  S
C273        N275   1.157       .  T
C274        N276   1.157       .  T
C277        C278   1.404       .  A
C277        C282   1.424   1_565  A
C278        C279   1.416       .  A
C278        H283   1.085       .  S
C279        C280   1.423       .  A
C279        C286   1.444       .  S
C280        C281   1.402   1_565  A
C281        C282   1.411       .  A
C281        H284   1.086       .  S
C282        C285   1.444       .  S
C285        N287   1.157       .  T
C286        N288   1.157       .  T
C289        C290   1.405       .  A
C289        C294   1.428   1_565  A
C290        C291   1.417       .  A
C290        H295   1.086       .  S
C291        C292   1.423       .  A
C291        C298   1.443       .  S
C292        C293   1.401   1_565  A
C293        C294   1.412       .  A
C293        H296   1.086       .  S
C294        C297   1.444       .  S
C297        N299   1.157       .  T
C298        N300   1.157       .  T
C301        C302   1.407       .  A
C301        C306   1.418       .  A
C302        C303   1.398       .  A
C302        H307   1.084       .  S
C303        C304   1.412       .  A
C303        C310   1.443       .  S
C304        C305   1.405       .  A
C305        C306   1.393       .  A
C305        H308   1.085       .  S
C306        C309   1.446       .  S
C309        N311   1.158       .  T
C310        N312   1.157       .  T
C313        C314   1.425       .  A
C313        C318   1.411   1_556  A
C314        C315   1.418       .  A
C314        H319   1.085       .  S
C315        C316   1.408       .  A
C315        C322   1.442       .  S
C316        C317   1.419   1_556  A
C317        C318   1.410       .  A
C317        H320   1.086       .  S
C318        C321   1.443       .  S
C321        N323   1.157       .  T
C322        N324   1.157       .  T
C325        C326   1.414       .  A
C325        C330   1.412   1_556  A
C326        C327   1.412       .  A
C326        H331   1.084       .  S
C327        C328   1.410       .  A
C327        C334   1.443       .  S
C328        C329   1.415   1_556  A
C329        C330   1.417       .  A
C329        H332   1.084       .  S
C330        C333   1.442       .  S
C333        N335   1.157       .  T
C334        N336   1.157       .  T
C337        C338   1.415       .  A
C337        C342   1.411   1_556  A
C338        C339   1.410       .  A
C338        H343   1.086       .  S
C339        C340   1.409   1_556  A
C339        C346   1.443       .  S
C340        C341   1.415       .  A
C341        C342   1.416       .  A
C341        H344   1.086       .  S
C342        C345   1.442       .  S
C345        N347   1.157       .  T
C346        N348   1.157       .  T
C349        C350   1.426       .  A
C349        C354   1.411   1_556  A
C350        C351   1.413       .  A
C350        H355   1.084       .  S
C351        C352   1.404   1_556  A
C351        C358   1.443       .  S
C352        C353   1.419       .  A
C353        C354   1.412       .  A
C353        H356   1.085       .  S
C354        C357   1.442       .  S
C357        N359   1.157       .  T
C358        N360   1.157       .  T
C361        C362   1.407       .  A
C361        C366   1.419       .  A
C362        C363   1.397       .  A
C362        H367   1.085       .  S
C363        C364   1.415       .  A
C363        C370   1.445       .  S
C364        C365   1.403       .  A
C365        C366   1.391       .  A
C365        H368   1.085       .  S
C366        C369   1.446       .  S
C369        N371   1.158       .  T
C370        N372   1.158       .  T
