geometry optimzed in LAMMPS
_audit_creation_date              2020-11-30 
_audit_creation_method            'lammps2cif' 
_symmetry_space_group_name_H-M    'P1' 
_symmetry_Int_Tables_number       1 
_symmetry_cell_setting            triclinic 
loop_ 
_symmetry_equiv_pos_as_xyz 
  x,y,z 
_cell_length_a                    36.620974371243584 
_cell_length_b                    36.468984943626836 
_cell_length_c                    26.875125436814688 
_cell_angle_alpha                 90.06397892658858 
_cell_angle_beta                  89.94151530190516 
_cell_angle_gamma                 90.00986735617613 
loop_ 
_atom_site_label 
_atom_site_type_symbol 
_atom_site_fract_x 
_atom_site_fract_y 
_atom_site_fract_z 
_atom_site_charge 
N1          N  0.73630171  0.73462403  0.57644936    -0.26750
N2          N  0.71588860  0.71112492  0.60141261    -0.34610
C3          C  0.72133998  0.71616340  0.65040629     0.01590
C4          C  0.74607320  0.74459880  0.65666766     0.07610
C5          C  0.75472734  0.75572662  0.60880466    -0.05490
H6          H  0.70841241  0.70007777  0.67927082     0.08280
H7          H  0.77309358  0.77758348  0.59812319     0.09480
Cu8        Cu  0.68045097  0.67468297  0.56733797     0.44170
Cu9        Cu  0.73931015  0.73602092  0.49968522     0.41990
Cu10       Cu  0.67288551  0.68248590  0.43243802     0.43880
N11         N  0.64494284  0.64385632  0.52432501    -0.34140
N12         N  0.64217174  0.64664978  0.47539466    -0.28390
C13         C  0.61695070  0.62265451  0.45916780    -0.04490
C14         C  0.60309598  0.60411366  0.49986148     0.07720
C15         C  0.62137551  0.61823463  0.54054292     0.01520
H16         H  0.60924224  0.61906030  0.42061108     0.09170
H17         H  0.61793851  0.61040186  0.57909013     0.08250
N18         N  0.71065550  0.71658063  0.39824202    -0.35590
N19         N  0.73631906  0.73432909  0.42294093    -0.27770
C20         C  0.75805721  0.75182218  0.39045092    -0.03010
C21         C  0.74508124  0.74556983  0.34274383     0.05600
C22         C  0.71485130  0.72309408  0.34932838     0.03690
H23         H  0.78162586  0.76791061  0.40099854     0.08800
H24         H  0.69700799  0.71236333  0.32076512     0.07630
N25         N  0.81320282  0.81393733  0.07630802    -0.26750
N26         N  0.83895791  0.83159677  0.10093982    -0.34610
C27         C  0.83484042  0.82506915  0.14985951     0.01590
C28         C  0.80456283  0.80267494  0.15652314     0.07610
C29         C  0.79147661  0.79648629  0.10885396    -0.05490
H30         H  0.85277206  0.83572953  0.17836744     0.08280
H31         H  0.76785177  0.78045749  0.09837239     0.09480
Cu32       Cu  0.87671327  0.86561024  0.06662830     0.44170
Cu33       Cu  0.81014667  0.81229648  0.99956916     0.41990
Cu34       Cu  0.86899064  0.87365259  0.93174415     0.43880
N35         N  0.90729658  0.90157460  0.02374650    -0.34140
N36         N  0.90448540  0.90448180  0.97483203    -0.28390
C37         C  0.92795347  0.93023953  0.95872838    -0.04490
C38         C  0.94619375  0.94432438  0.99947632     0.07720
C39         C  0.93242823  0.92562067  0.04007723     0.01520
H40         H  0.93133012  0.93820967  0.92022285     0.09170
H41         H  0.94011688  0.92915687  0.07865054     0.08250
N42         N  0.83354740  0.83712743  0.89777453    -0.35590
N43         N  0.81317318  0.81363104  0.92280595    -0.27770
C44         C  0.79477997  0.79244521  0.89051794    -0.03010
C45         C  0.80339626  0.80351482  0.84261982     0.05600
C46         C  0.82808577  0.83200452  0.84879499     0.03690
H47         H  0.77646752  0.77056371  0.90127537     0.08800
H48         H  0.84098194  0.84806490  0.81987837     0.07630
N49         N  0.73548723  0.31222082  0.57698109    -0.26750
N50         N  0.71394674  0.33485662  0.60182847    -0.34610
C51         C  0.71925672  0.32995577  0.65089520     0.01590
C52         C  0.74541600  0.30294584  0.65717363     0.07610
C53         C  0.75505985  0.29233257  0.60950502    -0.05490
H54         H  0.70527515  0.34509705  0.67985018     0.08280
H55         H  0.77473044  0.27152497  0.59919219     0.09480
Cu56       Cu  0.67837574  0.37126827  0.56772077     0.44170
Cu57       Cu  0.73756924  0.30941224  0.50007915     0.41990
Cu58       Cu  0.67846414  0.37114407  0.43256036     0.43880
N59         N  0.64505571  0.40454450  0.52467095    -0.34140
N60         N  0.64511338  0.40448228  0.47545398    -0.28390
C61         C  0.62039311  0.42890651  0.45906786    -0.04490
C62         C  0.60401995  0.44506804  0.49993016     0.07720
C63         C  0.62027930  0.42902355  0.54090174     0.01520
H64         H  0.61474985  0.43441551  0.42027332     0.09170
H65         H  0.61451830  0.43465840  0.57966099     0.08250
N66         N  0.71400602  0.33474722  0.39842926    -0.35590
N67         N  0.73555666  0.31214808  0.42318501    -0.27770
C68         C  0.75514316  0.29226224  0.39056209    -0.03010
C69         C  0.74545876  0.30285233  0.34295960     0.05600
C70         C  0.71929569  0.32983504  0.34935061     0.03690
H71         H  0.77484186  0.27148604  0.40075460     0.08800
H72         H  0.70529809  0.34495161  0.32047297     0.07630
N73         N  0.81257469  0.23585050  0.92298988    -0.26750
N74         N  0.83417856  0.21327048  0.89815314    -0.34610
C75         C  0.82887394  0.21815743  0.84908444     0.01590
C76         C  0.80264951  0.24510004  0.84279103     0.07610
C77         C  0.79296070  0.25568774  0.89045431    -0.05490
H78         H  0.84290872  0.20305641  0.82013852     0.08280
H79         H  0.77323915  0.27644997  0.90075437     0.09480
Cu80       Cu  0.86982741  0.17695596  0.93227508     0.44170
Cu81       Cu  0.81049427  0.23865779  0.99989254     0.41990
Cu82       Cu  0.86962667  0.17692913  0.06743290     0.43880
N83         N  0.90321477  0.14374205  0.97529530    -0.34140
N84         N  0.90311351  0.14373362  0.02451209    -0.28390
C85         C  0.92792411  0.11938928  0.04086682    -0.04490
C86         C  0.94440094  0.10335971  0.99998202     0.07720
C87         C  0.92810699  0.11939430  0.95903305     0.01520
H88         H  0.93357358  0.11385992  0.07965469     0.09170
H89         H  0.93393344  0.11385396  0.92026733     0.08250
N90         N  0.83404840  0.21330934  0.10155014    -0.35590
N91         N  0.81251171  0.23591819  0.07678668    -0.27770
C92         C  0.79293211  0.25581792  0.10940135    -0.03010
C93         C  0.80259910  0.24522518  0.15700930     0.05600
C94         C  0.82874923  0.21822634  0.15062736     0.03690
H95         H  0.77325015  0.27660725  0.09919801     0.08800
H96         H  0.84273764  0.20310742  0.17951091     0.07630
N97         N  0.31112311  0.73435824  0.57728901    -0.26750
N98         N  0.33355638  0.71265864  0.60210845    -0.34610
C99         C  0.32901132  0.71839336  0.65117814     0.01590
C100        C  0.30265928  0.74516251  0.65737538     0.07610
C101        C  0.29194155  0.75472198  0.60984175    -0.05490
H102        H  0.34398633  0.70436758  0.68015722     0.08280
H103        H  0.27154490  0.77481626  0.59968061     0.09480
Cu104      Cu  0.36990400  0.67701236  0.56798095     0.44170
Cu105      Cu  0.30757256  0.73538845  0.50038546     0.41990
Cu106      Cu  0.37366154  0.68093683  0.43298406     0.43880
N107        N  0.40421057  0.64472914  0.52490537    -0.34140
N108        N  0.40557832  0.64614011  0.47575917    -0.28390
C109        C  0.43021231  0.62157886  0.45934453    -0.04490
C110        C  0.44507710  0.60398934  0.50012222     0.07720
C111        C  0.42803408  0.61934066  0.54106579     0.01520
H112        H  0.43679986  0.61691557  0.42059280     0.09170
H113        H  0.43252021  0.61252732  0.57975959     0.08250
N114        N  0.33628085  0.71542894  0.39884570    -0.35590
N115        N  0.31124241  0.73419041  0.42348745    -0.27770
C116        C  0.29042508  0.75264883  0.39086236    -0.03010
C117        C  0.30318834  0.74560412  0.34323740     0.05600
C118        C  0.33237340  0.72188576  0.34987873     0.03690
H119        H  0.26763979  0.76994535  0.40116585     0.08800
H120        H  0.34970486  0.71031618  0.32127058     0.07630
N121        N  0.23848731  0.81525234  0.92269697    -0.26750
N122        N  0.21603056  0.83692980  0.89788184    -0.34610
C123        C  0.22058106  0.83120898  0.84881113     0.01590
C124        C  0.24696615  0.80447515  0.84260482     0.07610
C125        C  0.25769519  0.79491967  0.89013686    -0.05490
H126        H  0.20558212  0.84521544  0.81983785     0.08280
H127        H  0.27810961  0.77484195  0.90029186     0.09480
Cu128      Cu  0.17963746  0.87252244  0.93200479     0.44170
Cu129      Cu  0.24201746  0.81420227  0.99960531     0.41990
Cu130      Cu  0.17596112  0.86872333  0.06699923     0.43880
N131        N  0.14525731  0.90474602  0.97503815    -0.34140
N132        N  0.14391483  0.90338111  0.02418763    -0.28390
C133        C  0.11917549  0.92784758  0.04056720    -0.04490
C134        C  0.10421850  0.94532671  0.99976225     0.07720
C135        C  0.12131834  0.93001162  0.95884017     0.01520
H136        H  0.11256647  0.93250997  0.07931293     0.09170
H137        H  0.11677578  0.93674898  0.92013467     0.08250
N138        N  0.21335263  0.83424261  0.10114670    -0.35590
N139        N  0.23835665  0.81543225  0.07650670    -0.27770
C140        C  0.25915619  0.79695756  0.10913688    -0.03010
C141        C  0.24642108  0.80404838  0.15676273     0.05600
C142        C  0.21727028  0.82780807  0.15011817     0.03690
H143        H  0.28190934  0.77961666  0.09883732     0.08800
H144        H  0.19996382  0.83941397  0.17872757     0.07630
O145        O  0.06384044  0.98623498  0.95857928    -0.72410
O146        O  0.98559474  0.06330574  0.95866509    -0.73390
O147        O  0.06304057  0.06417275  0.95893960    -0.62010
O148        O  0.98626966  0.98559400  0.95838463    -0.70420
O149        O  0.98629709  0.98526782  0.04102920    -0.69970
O150        O  0.06296057  0.06388232  0.04157731    -0.61220
O151        O  0.98539803  0.06312848  0.04130329    -0.73730
O152        O  0.06364230  0.98598488  0.04121539    -0.72510
Cu153      Cu  0.02471795  0.02482602  0.95574909     1.04560
Cu154      Cu  0.02458144  0.02457636  0.04417403     1.04330
C155        C  0.07595158  0.97387920  0.99985399     0.93790
C156        C  0.97314338  0.07529863  0.99999942     0.92930
C157        C  0.07498557  0.07647858  0.00036376     0.85080
C158        C  0.97421917  0.97307394  0.99962933     0.91350
O159        O  0.56318793  0.48545164  0.45855827    -0.72410
O160        O  0.48537829  0.56306488  0.45862624    -0.73390
O161        O  0.56272427  0.56331320  0.45855200    -0.62010
O162        O  0.48562749  0.48516432  0.45845568    -0.70420
O163        O  0.48564359  0.48495018  0.54109393    -0.69970
O164        O  0.56285154  0.56313277  0.54119731    -0.61220
O165        O  0.48527780  0.56289592  0.54126297    -0.73730
O166        O  0.56309458  0.48541471  0.54119721    -0.72510
Cu167      Cu  0.52421711  0.52423277  0.45565683     1.04560
Cu168      Cu  0.52418989  0.52410496  0.54408248     1.04330
C169        C  0.57542728  0.47328295  0.49987469     0.93790
C170        C  0.47318696  0.57528050  0.49999624     0.92930
C171        C  0.57491949  0.57551331  0.49987896     0.85080
C172        C  0.47358568  0.47266957  0.49971386     0.91350
N173        N  0.23822457  0.23361478  0.92393803    -0.26750
N174        N  0.21155220  0.21701005  0.89971438    -0.34610
C175        C  0.21485292  0.22421565  0.85086018     0.01590
C176        C  0.24544680  0.24603367  0.84369470     0.07610
C177        C  0.25959185  0.25124544  0.89104652    -0.05490
H178        H  0.19617347  0.21437022  0.82269992     0.08280
H179        H  0.28371372  0.26669831  0.90101128     0.09480
Cu180      Cu  0.17319752  0.18365039  0.93395646     0.44170
Cu181      Cu  0.24297222  0.23359514  0.00082822     0.41990
Cu182      Cu  0.17668843  0.17962711  0.06866596     0.43880
N183        N  0.14152959  0.14843447  0.97647166    -0.34140
N184        N  0.14284472  0.14692818  0.02560370    -0.28390
C185        C  0.11943514  0.12108678  0.04164535    -0.04490
C186        C  0.10269907  0.10556918  0.00062292     0.07720
C187        C  0.11733719  0.12350115  0.95992925     0.01520
H188        H  0.11501710  0.11408607  0.08030542     0.09170
H189        H  0.11090871  0.11880774  0.92115131     0.08250
N190        N  0.21382907  0.21451045  0.10254742    -0.35590
N191        N  0.23840501  0.23383522  0.07775963    -0.27770
C192        C  0.25842481  0.25338612  0.11027428    -0.03010
C193        C  0.24569512  0.24602849  0.15759420     0.05600
C194        C  0.21748733  0.22130887  0.15150379     0.03690
H195        H  0.28053455  0.27161414  0.10021633     0.08800
H196        H  0.20103294  0.20898915  0.18047148     0.07630
N197        N  0.30981573  0.31606209  0.57613477    -0.26750
N198        N  0.33656643  0.33254358  0.60035498    -0.34610
C199        C  0.33328106  0.32529274  0.64919733     0.01590
C200        C  0.30261685  0.30357763  0.65636353     0.07610
C201        C  0.28841369  0.29846902  0.60902341    -0.05490
H202        H  0.35201924  0.33503741  0.67734911     0.08280
H203        H  0.26423264  0.28310751  0.59906524     0.09480
Cu204      Cu  0.37501913  0.36581282  0.56616094     0.44170
Cu205      Cu  0.30501884  0.31616056  0.49924527     0.41990
Cu206      Cu  0.37149497  0.36991203  0.43148185     0.43880
N207        N  0.40676877  0.40097510  0.52368301    -0.34140
N208        N  0.40543092  0.40250456  0.47455420    -0.28390
C209        C  0.42891661  0.42827020  0.45850700    -0.04490
C210        C  0.44573083  0.44371573  0.49951902     0.07720
C211        C  0.43105614  0.42582099  0.54021959     0.01520
H212        H  0.43334930  0.43525532  0.41984460     0.09170
H213        H  0.43753760  0.43046559  0.57899157     0.08250
N214        N  0.33428459  0.33513110  0.39755408    -0.35590
N215        N  0.30962517  0.31589466  0.42231378    -0.27770
C216        C  0.28958090  0.29638743  0.38977818    -0.03010
C217        C  0.30238516  0.30367771  0.34247448     0.05600
C218        C  0.33066116  0.32831450  0.34859728     0.03690
H219        H  0.26741087  0.27822590  0.39981145     0.08800
H220        H  0.34718736  0.34056463  0.31965076     0.07630
C221        C  0.28809854  0.28882353  0.70438643    -0.04800
C222        C  0.28606168  0.31146755  0.74714271    -0.01920
C223        C  0.27199594  0.29761075  0.79232223     0.03070
C224        C  0.25995911  0.26078728  0.79566580    -0.04800
C225        C  0.26204371  0.23812866  0.75292765    -0.01910
C226        C  0.27601934  0.25201339  0.70771118     0.03070
C227        C  0.29725581  0.34960839  0.74468205     0.37720
C228        C  0.25102874  0.19993811  0.75545937     0.37710
C229        C  0.27918629  0.22762789  0.66518774     0.36130
C230        C  0.26867375  0.32204333  0.83477415     0.36130
N231        N  0.28153247  0.20806460  0.63139217    -0.38690
N232        N  0.26618234  0.34165048  0.86850371    -0.38690
N233        N  0.24215993  0.16949772  0.75706591    -0.38130
N234        N  0.30629354  0.38000072  0.74314505    -0.38140
C235        C  0.26008129  0.26071451  0.20498594    -0.04800
C236        C  0.24293211  0.29089525  0.22812058    -0.01920
C237        C  0.25690053  0.30503132  0.27310502     0.03070
C238        C  0.28801066  0.28900184  0.29506824    -0.04800
C239        C  0.30518679  0.25884910  0.27190019    -0.01910
C240        C  0.29117272  0.24466521  0.22696947     0.03070
C241        C  0.21111828  0.30758204  0.20537706     0.37720
C242        C  0.33708705  0.24225152  0.29453888     0.37710
C243        C  0.30839855  0.21323000  0.20360877     0.36130
C244        C  0.23959683  0.33638718  0.29655458     0.36130
N245        N  0.32198910  0.18808947  0.18491838    -0.38690
N246        N  0.22592933  0.36145056  0.31533144    -0.38570
N247        N  0.36254270  0.22899795  0.31258016    -0.38130
N248        N  0.18574707  0.32092097  0.18723148    -0.38140
C249        C  0.28877882  0.76057058  0.29542545    -0.04800
C250        C  0.28049613  0.79833913  0.29093277    -0.01920
C251        C  0.26660095  0.81247583  0.24587826     0.03070
C252        C  0.26082130  0.78908105  0.20457862    -0.04800
C253        C  0.26906236  0.75130576  0.20908978    -0.01910
C254        C  0.28303151  0.73718186  0.25410907     0.03070
C255        C  0.28754230  0.82323851  0.33200088     0.37720
C256        C  0.26187048  0.72638555  0.16809198     0.37710
C257        C  0.29022256  0.69815765  0.25809386     0.36130
C258        C  0.25954217  0.85152065  0.24182746     0.36130
N259        N  0.29601645  0.66703323  0.26094391    -0.38690
N260        N  0.25387451  0.88266510  0.23891224    -0.38690
N261        N  0.25623351  0.70642128  0.13548194    -0.38130
N262        N  0.29303906  0.84318401  0.36467673    -0.38140
C263        C  0.26102140  0.78933974  0.79507436    -0.04800
C264        C  0.27881540  0.81247788  0.76062636    -0.01920
C265        C  0.29264647  0.79798504  0.71572868     0.03070
C266        C  0.28859636  0.76030170  0.70489903    -0.04800
C267        C  0.27076265  0.73717273  0.73931850    -0.01910
C268        C  0.25699383  0.75165118  0.78425959     0.03070
C269        C  0.28391921  0.85102769  0.77206214     0.37720
C270        C  0.26552557  0.69865637  0.72778768     0.37710
C271        C  0.23751692  0.72797352  0.81857827     0.36130
C272        C  0.31222563  0.82163654  0.68148467     0.36130
N273        N  0.22186458  0.70911702  0.84586491    -0.38690
N274        N  0.32797780  0.84046762  0.65427222    -0.38690
N275        N  0.26130792  0.66795355  0.71849964    -0.38130
N276        N  0.28800841  0.88176329  0.78125675    -0.38140
C277        C  0.76005967  0.28826580  0.29526410    -0.04800
C278        C  0.79813891  0.28742149  0.28663112    -0.01920
C279        C  0.81204863  0.27318329  0.24161802     0.03070
C280        C  0.78799616  0.25982668  0.20469902    -0.04800
C281        C  0.74991308  0.26071126  0.21331016    -0.01910
C282        C  0.73600812  0.27488578  0.25836288     0.03070
C283        C  0.82309502  0.30253539  0.32322697     0.37720
C284        C  0.72494175  0.24572856  0.17663518     0.37710
C285        C  0.69691582  0.27444453  0.26731748     0.36130
C286        C  0.85115054  0.27351577  0.23273722     0.36130
N287        N  0.66573506  0.27406337  0.27437625    -0.38690
N288        N  0.88234148  0.27379235  0.22575389    -0.38690
N289        N  0.70499015  0.23374726  0.14746749    -0.38130
N290        N  0.84302916  0.31464436  0.35231992    -0.38140
C291        C  0.76004227  0.28831396  0.70479720    -0.04800
C292        C  0.79814020  0.28722979  0.71319559    -0.01920
C293        C  0.81206197  0.27299142  0.75813849     0.03070
C294        C  0.78802504  0.25971382  0.79515758    -0.04800
C295        C  0.74993008  0.26075601  0.78673440    -0.01910
C296        C  0.73600435  0.27506330  0.74183395     0.03070
C297        C  0.82312926  0.30206126  0.67640831     0.37720
C298        C  0.72495391  0.24578651  0.82343493     0.37710
C299        C  0.69688850  0.27488925  0.73317429     0.36130
C300        C  0.85116847  0.27328782  0.76687408     0.36130
N301        N  0.66568703  0.27473506  0.72635824    -0.38690
N302        N  0.88236022  0.27355823  0.77376588    -0.38690
N303        N  0.70499477  0.23380231  0.85261002    -0.38130
N304        N  0.84310341  0.31391212  0.64715190    -0.38140
C305        C  0.76072863  0.75958365  0.70433818    -0.04800
C306        C  0.73706961  0.76674097  0.74487556    -0.01920
C307        C  0.75096712  0.78104612  0.78984828     0.03070
C308        C  0.78874691  0.78843316  0.79499478    -0.04800
C309        C  0.81240458  0.78127144  0.75445365    -0.01910
C310        C  0.79851675  0.76689071  0.70952042     0.03070
C311        C  0.69803289  0.76071997  0.74012759     0.37720
C312        C  0.85142981  0.78738235  0.75914774     0.37710
C313        C  0.82367682  0.75837247  0.66934505     0.36130
C314        C  0.72582022  0.78936948  0.83011286     0.36130
N315        N  0.84383934  0.75174179  0.63738316    -0.38690
N316        N  0.70566189  0.79581086  0.86215087    -0.38690
N317        N  0.88256234  0.79228645  0.76245431    -0.38130
N318        N  0.66689028  0.75590151  0.73676443    -0.38140
C319        C  0.76022268  0.76019328  0.29500947    -0.04800
C320        C  0.77208379  0.79709630  0.29168470    -0.01920
C321        C  0.78666867  0.81086213  0.24677887     0.03070
C322        C  0.78948882  0.78804188  0.20428764    -0.04800
C323        C  0.77761639  0.75114386  0.20760690    -0.01910
C324        C  0.76311799  0.73735285  0.25254840     0.03070
C325        C  0.76815262  0.82171830  0.33384687     0.37720
C326        C  0.78143453  0.72655679  0.16538766     0.37710
C327        C  0.75245372  0.69905839  0.25509085     0.36130
C328        C  0.79753844  0.84910208  0.24432263     0.36130
N329        N  0.74389114  0.66852738  0.25662716    -0.38690
N330        N  0.80629331  0.87958063  0.24287033    -0.38690
N331        N  0.78421947  0.70683657  0.13182038    -0.38130
N332        N  0.76526231  0.84147509  0.36735815    -0.38140
loop_ 
_geom_bond_atom_site_label_1 
_geom_bond_atom_site_label_2 
_geom_bond_distance 
_geom_bond_site_symmetry_2 
_ccdc_geom_bond_type 
N1            N2   1.320       .  A
N1            C5   1.343       .  A
N1           Cu9   2.067       .  S
N2            C3   1.344       .  A
N2           Cu8   2.071       .  S
C3            C4   1.387       .  A
C3            H6   1.082       .  S
C4            C5   1.386       .  A
C4          C305   1.493       .  S
C5            H7   1.082       .  S
Cu8          N11   2.071       .  S
Cu9          N19   2.066       .  S
Cu10         N12   2.075       .  S
Cu10         N18   2.074       .  S
N11          N12   1.323       .  A
N11          C15   1.345       .  A
N12          C13   1.345       .  A
C13          C14   1.382       .  A
C13          H16   1.082       .  S
C14          C15   1.382       .  A
C14         C171   1.467       .  S
C15          H17   1.082       .  S
N18          N19   1.320       .  A
N18          C22   1.345       .  A
N19          C20   1.343       .  A
C20          C21   1.386       .  A
C20          H23   1.081       .  S
C21          C22   1.389       .  A
C21         C319   1.496       .  S
C22          H24   1.082       .  S
N25          N26   1.320       .  A
N25          C29   1.343       .  A
N25         Cu33   2.066   1_554  S
N26          C27   1.345       .  A
N26         Cu32   2.074       .  S
C27          C28   1.389       .  A
C27          H30   1.081       .  S
C28          C29   1.387       .  A
C28         C322   1.496       .  S
C29          H31   1.081       .  S
Cu32         N35   2.074       .  S
Cu33         N43   2.067       .  S
Cu34         N36   2.072       .  S
Cu34         N42   2.072       .  S
N35          N36   1.323   1_554  A
N35          C39   1.345       .  A
N36          C37   1.345       .  A
C37          C38   1.382       .  A
C37          H40   1.082       .  S
C38          C39   1.382   1_556  A
C38         C158   1.467       .  S
C39          H41   1.082       .  S
N42          N43   1.320       .  A
N42          C46   1.344       .  A
N43          C44   1.343       .  A
C44          C45   1.386       .  A
C44          H47   1.082       .  S
C45          C46   1.387       .  A
C45         C308   1.493       .  S
C46          H48   1.082       .  S
N49          N50   1.322       .  A
N49          C53   1.344       .  A
N49         Cu57   2.070       .  S
N50          C51   1.345       .  A
N50         Cu56   2.075       .  S
C51          C52   1.385       .  A
C51          H54   1.082       .  S
C52          C53   1.383       .  A
C52         C291   1.488       .  S
C53          H55   1.082       .  S
Cu56         N59   2.075       .  S
Cu57         N67   2.070       .  S
Cu58         N60   2.072       .  S
Cu58         N66   2.072       .  S
N59          N60   1.323       .  A
N59          C63   1.345       .  A
N60          C61   1.345       .  A
C61          C62   1.382       .  A
C61          H64   1.082       .  S
C62          C63   1.383       .  A
C62         C169   1.468       .  S
C63          H65   1.082       .  S
N66          N67   1.322       .  A
N66          C70   1.345       .  A
N67          C68   1.344       .  A
C68          C69   1.383       .  A
C68          H71   1.082       .  S
C69          C70   1.384       .  A
C69         C277   1.486       .  S
C70          H72   1.082       .  S
N73          N74   1.322       .  A
N73          C77   1.344       .  A
N73         Cu81   2.071       .  S
N74          C75   1.345       .  A
N74         Cu80   2.075       .  S
C75          C76   1.385       .  A
C75          H78   1.082       .  S
C76          C77   1.383       .  A
C76         C294   1.488       .  S
C77          H79   1.082       .  S
Cu80         N83   2.075       .  S
Cu81         N91   2.070   1_556  S
Cu82         N84   2.072       .  S
Cu82         N90   2.072       .  S
N83          N84   1.323   1_556  A
N83          C87   1.345       .  A
N84          C85   1.345       .  A
C85          C86   1.382   1_554  A
C85          H88   1.082       .  S
C86          C87   1.383       .  A
C86         C156   1.468       .  S
C87          H89   1.082       .  S
N90          N91   1.322       .  A
N90          C94   1.345       .  A
N91          C92   1.344       .  A
C92          C93   1.383       .  A
C92          H95   1.082       .  S
C93          C94   1.384       .  A
C93         C280   1.486       .  S
C94          H96   1.082       .  S
N97          N98   1.322       .  A
N97         C101   1.345       .  A
N97        Cu105   2.071       .  S
N98          C99   1.345       .  A
N98        Cu104   2.073       .  S
C99         C100   1.383       .  A
C99         H102   1.082       .  S
C100        C101   1.382       .  A
C100        C266   1.483       .  S
C101        H103   1.082       .  S
Cu104       N107   2.073       .  S
Cu105       N115   2.071       .  S
Cu106       N108   2.075       .  S
Cu106       N114   2.075       .  S
N107        N108   1.323       .  A
N107        C111   1.345       .  A
N108        C109   1.345       .  A
C109        C110   1.383       .  A
C109        H112   1.082       .  S
C110        C111   1.382       .  A
C110        C170   1.468       .  S
C111        H113   1.082       .  S
N114        N115   1.321       .  A
N114        C118   1.345       .  A
N115        C116   1.344       .  A
C116        C117   1.386       .  A
C116        H119   1.082       .  S
C117        C118   1.387       .  A
C117        C249   1.493       .  S
C118        H120   1.082       .  S
N121        N122   1.322       .  A
N121        C125   1.345       .  A
N121       Cu129   2.071       .  S
N122        C123   1.345       .  A
N122       Cu128   2.073       .  S
C123        C124   1.383       .  A
C123        H126   1.082       .  S
C124        C125   1.382       .  A
C124        C263   1.483       .  S
C125        H127   1.082       .  S
Cu128       N131   2.073       .  S
Cu129       N139   2.071   1_556  S
Cu130       N132   2.075       .  S
Cu130       N138   2.075       .  S
N131        N132   1.323   1_556  A
N131        C135   1.345       .  A
N132        C133   1.345       .  A
C133        C134   1.383   1_554  A
C133        H136   1.082       .  S
C134        C135   1.382       .  A
C134        C155   1.468       .  S
C135        H137   1.082       .  S
N138        N139   1.321       .  A
N138        C142   1.345       .  A
N139        C140   1.344       .  A
C140        C141   1.386       .  A
C140        H143   1.082       .  S
C141        C142   1.387       .  A
C141        C252   1.493       .  S
C142        H144   1.082       .  S
O145       Cu153   2.010   1_565  S
O145        C155   1.278       .  A
O146       Cu153   2.007   1_655  S
O146        C156   1.277       .  A
O147       Cu153   2.009       .  S
O147        C157   1.277   1_556  A
O148       Cu153   2.008   1_665  S
O148        C158   1.277       .  A
O149       Cu154   2.007   1_665  S
O149        C158   1.277   1_554  A
O150       Cu154   2.009       .  S
O150        C157   1.277       .  A
O151       Cu154   2.011   1_655  S
O151        C156   1.278   1_554  A
O152       Cu154   2.008   1_565  S
O152        C155   1.277   1_554  A
Cu153      Cu154   2.376   1_556  S
C157        C186   1.468       .  S
O159       Cu167   2.011       .  S
O159        C169   1.278       .  A
O160       Cu167   2.009       .  S
O160        C170   1.277       .  A
O161       Cu167   2.006       .  S
O161        C171   1.277       .  A
O162       Cu167   2.008       .  S
O162        C172   1.277       .  A
O163       Cu168   2.009       .  S
O163        C172   1.278       .  A
O164       Cu168   2.009       .  S
O164        C171   1.278       .  A
O165       Cu168   2.010       .  S
O165        C170   1.278       .  A
O166       Cu168   2.007       .  S
O166        C169   1.277       .  A
Cu167      Cu168   2.376       .  S
C172        C210   1.468       .  S
N173        N174   1.321       .  A
N173        C177   1.344       .  A
N173       Cu181   2.074   1_556  S
N174        C175   1.345       .  A
N174       Cu180   2.073       .  S
C175        C176   1.387       .  A
C175        H178   1.082       .  S
C176        C177   1.387       .  A
C176        C224   1.496       .  S
C177        H179   1.081       .  S
Cu180       N183   2.074       .  S
Cu181       N191   2.074       .  S
Cu182       N184   2.073       .  S
Cu182       N190   2.073       .  S
N183        N184   1.323   1_556  A
N183        C187   1.345       .  A
N184        C185   1.345       .  A
C185        C186   1.382       .  A
C185        H188   1.082       .  S
C186        C187   1.383   1_554  A
C187        H189   1.082       .  S
N190        N191   1.323       .  A
N190        C194   1.345       .  A
N191        C192   1.345       .  A
C192        C193   1.381       .  A
C192        H195   1.082       .  S
C193        C194   1.381       .  A
C193        C235   1.479       .  S
C194        H196   1.082       .  S
N197        N198   1.321       .  A
N197        C201   1.344       .  A
N197       Cu205   2.074       .  S
N198        C199   1.345       .  A
N198       Cu204   2.073       .  S
C199        C200   1.387       .  A
C199        H202   1.082       .  S
C200        C201   1.387       .  A
C200        C221   1.496       .  S
C201        H203   1.081       .  S
Cu204       N207   2.074       .  S
Cu205       N215   2.074       .  S
Cu206       N208   2.073       .  S
Cu206       N214   2.073       .  S
N207        N208   1.323       .  A
N207        C211   1.345       .  A
N208        C209   1.345       .  A
C209        C210   1.382       .  A
C209        H212   1.082       .  S
C210        C211   1.383       .  A
C211        H213   1.082       .  S
N214        N215   1.323       .  A
N214        C218   1.345       .  A
N215        C216   1.345       .  A
C216        C217   1.381       .  A
C216        H219   1.082       .  S
C217        C218   1.381       .  A
C217        C238   1.479       .  S
C218        H220   1.082       .  S
C221        C222   1.416       .  A
C221        C226   1.416       .  A
C222        C223   1.412       .  A
C222        C227   1.452       .  S
C223        C224   1.416       .  A
C223        C230   1.452       .  S
C224        C225   1.416       .  A
C225        C226   1.412       .  A
C225        C228   1.452       .  S
C226        C229   1.452       .  S
C227        N234   1.157       .  T
C228        N233   1.157       .  T
C229        N231   1.157       .  T
C230        N232   1.157       .  T
C235        C236   1.411       .  A
C235        C240   1.411       .  A
C236        C237   1.410       .  A
C236        C241   1.450       .  S
C237        C238   1.411       .  A
C237        C244   1.451       .  S
C238        C239   1.411       .  A
C239        C240   1.410       .  A
C239        C242   1.450       .  S
C240        C243   1.451       .  S
C241        N248   1.157       .  T
C242        N247   1.157       .  T
C243        N245   1.157       .  T
C244        N246   1.157       .  T
C249        C250   1.416       .  A
C249        C254   1.415       .  A
C250        C251   1.412       .  A
C250        C255   1.452       .  S
C251        C252   1.415       .  A
C251        C258   1.451       .  S
C252        C253   1.416       .  A
C253        C254   1.412       .  A
C253        C256   1.452       .  S
C254        C257   1.451       .  S
C255        N262   1.157       .  T
C256        N261   1.157       .  T
C257        N259   1.157       .  T
C258        N260   1.157       .  T
C263        C264   1.412       .  A
C263        C268   1.412       .  A
C264        C265   1.410       .  A
C264        C269   1.451       .  S
C265        C266   1.412       .  A
C265        C272   1.451       .  S
C266        C267   1.412       .  A
C267        C268   1.410       .  A
C267        C270   1.451       .  S
C268        C271   1.451       .  S
C269        N276   1.157       .  T
C270        N275   1.157       .  T
C271        N273   1.157       .  T
C272        N274   1.157       .  T
C277        C278   1.414       .  A
C277        C282   1.413       .  A
C278        C279   1.411       .  A
C278        C283   1.451       .  S
C279        C280   1.414       .  A
C279        C286   1.452       .  S
C280        C281   1.414       .  A
C281        C282   1.411       .  A
C281        C284   1.451       .  S
C282        C285   1.452       .  S
C283        N290   1.157       .  T
C284        N289   1.157       .  T
C285        N287   1.157       .  T
C286        N288   1.157       .  T
C291        C292   1.414       .  A
C291        C296   1.414       .  A
C292        C293   1.411       .  A
C292        C297   1.451       .  S
C293        C294   1.414       .  A
C293        C300   1.452       .  S
C294        C295   1.414       .  A
C295        C296   1.411       .  A
C295        C298   1.451       .  S
C296        C299   1.451       .  S
C297        N304   1.157       .  T
C298        N303   1.157       .  T
C299        N301   1.157       .  T
C300        N302   1.157       .  T
C305        C306   1.415       .  A
C305        C310   1.416       .  A
C306        C307   1.411       .  A
C306        C311   1.452       .  S
C307        C308   1.416       .  A
C307        C314   1.452       .  S
C308        C309   1.415       .  A
C309        C310   1.411       .  A
C309        C312   1.452       .  S
C310        C313   1.452       .  S
C311        N318   1.158       .  T
C312        N317   1.158       .  T
C313        N315   1.158       .  T
C314        N316   1.158       .  T
C319        C320   1.417       .  A
C319        C324   1.416       .  A
C320        C321   1.412       .  A
C320        C325   1.452       .  S
C321        C322   1.416       .  A
C321        C328   1.452       .  S
C322        C323   1.417       .  A
C323        C324   1.412       .  A
C323        C326   1.452       .  S
C324        C327   1.452       .  S
C325        N332   1.158       .  T
C326        N331   1.158       .  T
C327        N329   1.157       .  T
C328        N330   1.157       .  T
