geometry optimzed in LAMMPS
_audit_creation_date              2020-11-30 
_audit_creation_method            'lammps2cif' 
_symmetry_space_group_name_H-M    'P1' 
_symmetry_Int_Tables_number       1 
_symmetry_cell_setting            triclinic 
loop_ 
_symmetry_equiv_pos_as_xyz 
  x,y,z 
_cell_length_a                    21.96469944 
_cell_length_b                    21.965609239982477 
_cell_length_c                    28.22612945243268 
_cell_angle_alpha                 89.9999786252885 
_cell_angle_beta                  90.00075193007392 
_cell_angle_gamma                 89.99226853177574 
loop_ 
_atom_site_label 
_atom_site_type_symbol 
_atom_site_fract_x 
_atom_site_fract_y 
_atom_site_fract_z 
_atom_site_charge 
O1          O  0.45249286  0.06403519  0.19970693    -0.68500
O2          O  0.45248797  0.93508136  0.30030857    -0.69500
O3          O  0.45249125  0.93508127  0.19970649    -0.58100
O4          O  0.45248952  0.06403512  0.30030817    -0.66500
O5          O  0.35129492  0.06427480  0.30048965    -0.66100
O6          O  0.35129667  0.93487269  0.19951939    -0.57300
O7          O  0.35129335  0.93487280  0.30048985    -0.69800
O8          O  0.35129826  0.06427468  0.19951951    -0.68600
Cu9        Cu  0.45599125  0.99955773  0.25000765     1.04600
Cu10       Cu  0.34766013  0.99957422  0.25000449     1.04300
C11         C  0.40201419  0.08414313  0.18371077     0.97700
C12         C  0.40200753  0.91498892  0.31630188     0.96800
C13         C  0.40201188  0.91498888  0.18371032     0.89000
C14         C  0.40201001  0.08414307  0.31630125     0.95200
C15         C  0.43238892  0.27505790  0.50000562     0.02700
C16         C  0.43234368  0.72405472  0.00000583     0.01900
O17         O  0.59697295  0.93502702  0.19969948    -0.68500
O18         O  0.59697121  0.06398067  0.30030108    -0.69500
O19         O  0.59697446  0.06398053  0.19969918    -0.58100
O20         O  0.59696978  0.93502691  0.30030074    -0.66500
O21         O  0.69816436  0.93478724  0.30048826    -0.66100
O22         O  0.69816903  0.06418939  0.19951770    -0.57300
O23         O  0.69816575  0.06418951  0.30048832    -0.69800
O24         O  0.69816755  0.93478727  0.19951794    -0.68600
Cu25       Cu  0.59347142  0.99950423  0.25000001     1.04600
Cu26       Cu  0.70180244  0.99948783  0.25000317     1.04300
C27         C  0.64745256  0.91491907  0.18370621     0.97700
C28         C  0.64745060  0.08407311  0.31629736     0.96800
C29         C  0.64745478  0.08407307  0.18370573     0.89000
C30         C  0.64744836  0.91491915  0.31629695     0.95200
C31         C  0.61711163  0.27500661  0.00000190     0.01900
C32         C  0.61706643  0.72400480  0.00000191     0.01900
O33         O  0.08947233  0.32611781  0.19952062    -0.68500
O34         O  0.96006258  0.32610546  0.30048760    -0.69500
O35         O  0.96006501  0.32610540  0.19951732    -0.58100
O36         O  0.08946972  0.32611790  0.30049082    -0.66500
O37         O  0.08922199  0.42730825  0.30030609    -0.66100
O38         O  0.96026560  0.42729579  0.19970150    -0.57300
O39         O  0.96026309  0.42729586  0.30030308    -0.69800
O40         O  0.08922427  0.42730820  0.19970494    -0.68600
Cu41       Cu  0.02476825  0.32247605  0.25000409     1.04600
Cu42       Cu  0.02474294  0.43080264  0.25000388     1.04300
C43         C  0.10933735  0.37683285  0.18371084     0.97700
C44         C  0.94017373  0.37681645  0.31629730     0.96800
C45         C  0.94017677  0.37681622  0.18370651     0.89000
C46         C  0.10933416  0.37683298  0.31630135     0.95200
C47         C  0.30026023  0.40720967  0.50000738     0.01900
C48         C  0.74923318  0.40714007  0.00000062     0.01900
O49         O  0.96022969  0.57175052  0.30030304    -0.68500
O50         O  0.08919087  0.57176326  0.19970487    -0.69500
O51         O  0.08918835  0.57176315  0.30030654    -0.58100
O52         O  0.96023210  0.57175063  0.19970193    -0.66500
O53         O  0.95998381  0.67294098  0.19951746    -0.66100
O54         O  0.08938858  0.67295357  0.30049084    -0.57300
O55         O  0.08939106  0.67295366  0.19952057    -0.69800
O56         O  0.95998141  0.67294090  0.30048751    -0.68600
Cu57       Cu  0.02471105  0.56825625  0.25000408     1.04600
Cu58       Cu  0.02468540  0.67658284  0.25000408     1.04300
C59         C  0.94011645  0.62222581  0.31629726     0.97700
C60         C  0.10928003  0.62224288  0.18371070     0.96800
C61         C  0.10927707  0.62224264  0.31630171     0.89000
C62         C  0.94011957  0.62222591  0.18370684     0.95200
C63         C  0.30022108  0.59192168  0.00000741     0.01900
C64         C  0.74919358  0.59185160  0.00000068     0.01900
C65         C  0.89509280  0.62163588  0.35316895    -0.14100
C66         C  0.85888371  0.61869905  0.38520171     0.10000
C67         C  0.81852343  0.61246857  0.42384663     0.11800
C68         C  0.78601215  0.60464829  0.45776942    -0.14900
C69         C  0.78601446  0.60464821  0.04223150    -0.14100
C70         C  0.81852706  0.61246869  0.07615397     0.10000
C71         C  0.85888839  0.61869898  0.11479942     0.11800
C72         C  0.89509715  0.62163593  0.14683297    -0.14900
C73         C  0.15429976  0.62166257  0.35317529    -0.14100
C74         C  0.19051087  0.61873699  0.38520892     0.10000
C75         C  0.23087679  0.61252135  0.42385369     0.11800
C76         C  0.26339456  0.60471178  0.45777636    -0.14900
C77         C  0.15430405  0.62166280  0.14683862    -0.14100
C78         C  0.19051534  0.61873720  0.11480630     0.10000
C79         C  0.23088060  0.61252152  0.07616154     0.11800
C80         C  0.26339677  0.60471186  0.04223893    -0.14900
C81         C  0.73327693  0.47199410  0.00000078    -0.08800
C82         C  0.73326476  0.52699517  0.00000080    -0.10400
C83         C  0.31617691  0.52706746  0.50000736    -0.08800
C84         C  0.31618864  0.47206636  0.50000731    -0.10400
C85         C  0.89515387  0.37739672  0.14683271    -0.14100
C86         C  0.85894304  0.38032305  0.11479932     0.10000
C87         C  0.81857711  0.38653971  0.07615426     0.11800
C88         C  0.78605983  0.39435002  0.04223170    -0.14900
C89         C  0.78605749  0.39435015  0.45776915    -0.14100
C90         C  0.81857333  0.38653984  0.42384650     0.10000
C91         C  0.85893845  0.38032333  0.38520167     0.11800
C92         C  0.89514956  0.37739692  0.35316935    -0.14900
C93         C  0.26343917  0.39441263  0.45777661    -0.14100
C94         C  0.23092674  0.38659161  0.42385414     0.10000
C95         C  0.19056517  0.38036057  0.38520883     0.11800
C96         C  0.15435643  0.37742292  0.35317537    -0.14900
C97         C  0.26344173  0.39441245  0.04223861    -0.14100
C98         C  0.23093066  0.38659142  0.07616137     0.10000
C99         C  0.19056996  0.38036023  0.11480623     0.11800
C100        C  0.15436087  0.37742280  0.14683886    -0.14900
C101        C  0.65613377  0.66983012  0.00000147    -0.08800
C102        C  0.69502535  0.63092932  0.00000113    -0.10400
C103        C  0.65619122  0.32916233  0.00000135    -0.08800
C104        C  0.69507965  0.36805607  0.00000102    -0.10400
C105        C  0.62987241  0.76082064  0.04223278    -0.14100
C106        C  0.63769798  0.79333065  0.07615538     0.10000
C107        C  0.64393076  0.83368997  0.11480024     0.11800
C108        C  0.64686706  0.86989772  0.14683351    -0.14900
C109        C  0.62986877  0.76082058  0.45777050    -0.14100
C110        C  0.63769214  0.79333048  0.42384793     0.10000
C111        C  0.64392421  0.83369003  0.38520284     0.11800
C112        C  0.64686076  0.86989768  0.35316987    -0.14900
C113        C  0.64686548  0.12909467  0.35317028    -0.14100
C114        C  0.64393557  0.16530450  0.38520313     0.10000
C115        C  0.63771566  0.20566847  0.42384754     0.11800
C116        C  0.62990338  0.23818390  0.45777009    -0.14900
C117        C  0.62990709  0.23818370  0.04223288    -0.14100
C118        C  0.63772157  0.20566825  0.07615546     0.10000
C119        C  0.64394227  0.16530451  0.11479980     0.11800
C120        C  0.64687166  0.12909445  0.14683290    -0.14900
C121        C  0.35437492  0.63100562  0.00000687    -0.08800
C122        C  0.39326384  0.66989898  0.00000649    -0.10400
C123        C  0.49720130  0.70810377  0.00000445    -0.08800
C124        C  0.55220454  0.70808856  0.00000324    -0.10400
C125        C  0.35442887  0.36813255  0.50000688    -0.08800
C126        C  0.39332112  0.32923223  0.50000638    -0.10400
C127        C  0.55225398  0.29095789  0.50000310    -0.08800
C128        C  0.49725075  0.29097424  0.50000433    -0.10400
C129        C  0.40259006  0.86996757  0.35317464    -0.14100
C130        C  0.40551773  0.83375738  0.38520774     0.10000
C131        C  0.41173591  0.79339330  0.42385209     0.11800
C132        C  0.41954849  0.76087762  0.45777482    -0.14900
C133        C  0.41955248  0.76087771  0.04223739    -0.14100
C134        C  0.41174169  0.79339332  0.07616012     0.10000
C135        C  0.40552457  0.83375754  0.11480448     0.11800
C136        C  0.40259643  0.86996753  0.14683743    -0.14900
C137        C  0.41958367  0.23824192  0.45777472    -0.14100
C138        C  0.41175980  0.20573199  0.42385209     0.10000
C139        C  0.40552946  0.16537240  0.38520701     0.11800
C140        C  0.40259504  0.12916457  0.35317392    -0.14900
C141        C  0.40260141  0.12916431  0.14683809    -0.14100
C142        C  0.40553645  0.16537244  0.11480488     0.10000
C143        C  0.41176567  0.20573181  0.07615993     0.11800
C144        C  0.41958747  0.23824212  0.04223704    -0.14900
O145        O  0.45249284  0.06403523  0.69970674    -0.68500
O146        O  0.45248792  0.93508152  0.80030853    -0.69500
O147        O  0.45249124  0.93508148  0.69970657    -0.58100
O148        O  0.45248953  0.06403532  0.80030801    -0.66500
O149        O  0.35129490  0.06427481  0.80048953    -0.66100
O150        O  0.35129668  0.93487291  0.69951929    -0.57300
O151        O  0.35129337  0.93487288  0.80048970    -0.69800
O152        O  0.35129824  0.06427483  0.69951952    -0.68600
Cu153      Cu  0.45599116  0.99955792  0.75000758     1.04600
Cu154      Cu  0.34766011  0.99957438  0.75000441     1.04300
C155        C  0.40201412  0.08414304  0.68371064     0.97700
C156        C  0.40200751  0.91498918  0.81630175     0.96800
C157        C  0.40201178  0.91498905  0.68371024     0.89000
C158        C  0.40200977  0.08414320  0.81630125     0.95200
C159        C  0.43238898  0.27505785  0.00000566     0.02700
C160        C  0.43234363  0.72405468  0.50000586     0.01900
O161        O  0.59697298  0.93502696  0.69969963    -0.68500
O162        O  0.59697124  0.06398054  0.80030116    -0.69500
O163        O  0.59697439  0.06398049  0.69969917    -0.58100
O164        O  0.59696982  0.93502675  0.80030080    -0.66500
O165        O  0.69816442  0.93478746  0.80048833    -0.66100
O166        O  0.69816898  0.06418943  0.69951784    -0.57300
O167        O  0.69816581  0.06418959  0.80048837    -0.69800
O168        O  0.69816760  0.93478735  0.69951791    -0.68600
Cu169      Cu  0.59347138  0.99950423  0.75000008     1.04600
Cu170      Cu  0.70180246  0.99948796  0.75000320     1.04300
C171        C  0.64745237  0.91491906  0.68370627     0.97700
C172        C  0.64745064  0.08407309  0.81629744     0.96800
C173        C  0.64745460  0.08407310  0.68370580     0.89000
C174        C  0.64744843  0.91491896  0.81629711     0.95200
C175        C  0.61711158  0.27500665  0.50000179     0.01900
C176        C  0.61706654  0.72400475  0.50000201     0.01900
O177        O  0.08947232  0.32611772  0.69952055    -0.68500
O178        O  0.96006280  0.32610545  0.80048758    -0.69500
O179        O  0.96006508  0.32610540  0.69951730    -0.58100
O180        O  0.08946999  0.32611784  0.80049068    -0.66500
O181        O  0.08922166  0.42730825  0.80030616    -0.66100
O182        O  0.96026546  0.42729578  0.69970162    -0.57300
O183        O  0.96026311  0.42729588  0.80030315    -0.69800
O184        O  0.08922418  0.42730809  0.69970505    -0.68600
Cu185      Cu  0.02476835  0.32247604  0.75000407     1.04600
Cu186      Cu  0.02474284  0.43080265  0.75000401     1.04300
C187        C  0.10933740  0.37683257  0.68371081     0.97700
C188        C  0.94017360  0.37681651  0.81629745     0.96800
C189        C  0.94017688  0.37681641  0.68370643     0.89000
C190        C  0.10933441  0.37683299  0.81630142     0.95200
C191        C  0.30026033  0.40720962  0.00000733     0.01900
C192        C  0.74923314  0.40714009  0.50000067     0.01900
O193        O  0.96022952  0.57175071  0.80030292    -0.68500
O194        O  0.08919075  0.57176338  0.69970480    -0.69500
O195        O  0.08918836  0.57176333  0.80030647    -0.58100
O196        O  0.96023198  0.57175063  0.69970187    -0.66500
O197        O  0.95998372  0.67294102  0.69951743    -0.66100
O198        O  0.08938848  0.67295371  0.80049069    -0.57300
O199        O  0.08939075  0.67295379  0.69952052    -0.69800
O200        O  0.95998136  0.67294108  0.80048743    -0.68600
Cu201      Cu  0.02471093  0.56825637  0.75000400     1.04600
Cu202      Cu  0.02468526  0.67658295  0.75000400     1.04300
C203        C  0.94011637  0.62222619  0.81629716     0.97700
C204        C  0.10928007  0.62224287  0.68371056     0.96800
C205        C  0.10927690  0.62224279  0.81630162     0.89000
C206        C  0.94011930  0.62222599  0.68370668     0.95200
C207        C  0.30022106  0.59192174  0.50000736     0.01900
C208        C  0.74919355  0.59185172  0.50000069     0.01900
C209        C  0.89509287  0.62163600  0.85316909    -0.14100
C210        C  0.85888374  0.61869898  0.88520176     0.10000
C211        C  0.81852310  0.61246880  0.92384664     0.11800
C212        C  0.78601203  0.60464831  0.95776942    -0.14900
C213        C  0.78601436  0.60464840  0.54223134    -0.14100
C214        C  0.81852699  0.61246874  0.57615424     0.10000
C215        C  0.85888813  0.61869890  0.61479926     0.11800
C216        C  0.89509728  0.62163602  0.64683309    -0.14900
C217        C  0.15429962  0.62166277  0.85317543    -0.14100
C218        C  0.19051082  0.61873686  0.88520887     0.10000
C219        C  0.23087680  0.61252146  0.92385380     0.11800
C220        C  0.26339438  0.60471160  0.95777648    -0.14900
C221        C  0.15430385  0.62166287  0.64683870    -0.14100
C222        C  0.19051534  0.61873727  0.61480596     0.10000
C223        C  0.23088047  0.61252168  0.57616154     0.11800
C224        C  0.26339680  0.60471187  0.54223868    -0.14900
C225        C  0.73327680  0.47199419  0.50000075    -0.08800
C226        C  0.73326461  0.52699523  0.50000074    -0.10400
C227        C  0.31617685  0.52706747  0.00000740    -0.08800
C228        C  0.31618880  0.47206638  0.00000736    -0.10400
C229        C  0.89515396  0.37739670  0.64683262    -0.14100
C230        C  0.85894296  0.38032318  0.61479927     0.10000
C231        C  0.81857714  0.38653969  0.57615415     0.11800
C232        C  0.78605977  0.39435002  0.54223163    -0.14900
C233        C  0.78605736  0.39435003  0.95776929    -0.14100
C234        C  0.81857354  0.38653971  0.92384636     0.10000
C235        C  0.85893838  0.38032309  0.88520197     0.11800
C236        C  0.89514986  0.37739678  0.85316921    -0.14900
C237        C  0.26343947  0.39441282  0.95777668    -0.14100
C238        C  0.23092661  0.38659178  0.92385395     0.10000
C239        C  0.19056553  0.38036061  0.88520896     0.11800
C240        C  0.15435642  0.37742311  0.85317505    -0.14900
C241        C  0.26344184  0.39441254  0.54223861    -0.14100
C242        C  0.23093066  0.38659146  0.57616127     0.10000
C243        C  0.19057004  0.38036032  0.61480611     0.11800
C244        C  0.15436093  0.37742282  0.64683885    -0.14900
C245        C  0.65613374  0.66983010  0.50000141    -0.08800
C246        C  0.69502534  0.63092926  0.50000102    -0.10400
C247        C  0.65619121  0.32916228  0.50000134    -0.08800
C248        C  0.69507963  0.36805601  0.50000106    -0.10400
C249        C  0.62987261  0.76082054  0.54223286    -0.14100
C250        C  0.63769794  0.79333067  0.57615552     0.10000
C251        C  0.64393090  0.83368995  0.61480031     0.11800
C252        C  0.64686698  0.86989802  0.64683351    -0.14900
C253        C  0.62986862  0.76082058  0.95777063    -0.14100
C254        C  0.63769228  0.79333051  0.92384768     0.10000
C255        C  0.64392415  0.83368978  0.88520298     0.11800
C256        C  0.64686108  0.86989785  0.85316975    -0.14900
C257        C  0.64686534  0.12909483  0.85317025    -0.14100
C258        C  0.64393555  0.16530461  0.88520318     0.10000
C259        C  0.63771589  0.20566858  0.92384770     0.11800
C260        C  0.62990342  0.23818390  0.95777022    -0.14900
C261        C  0.62990720  0.23818372  0.54223283    -0.14100
C262        C  0.63772155  0.20566818  0.57615537     0.10000
C263        C  0.64394225  0.16530423  0.61479966     0.11800
C264        C  0.64687170  0.12909448  0.64683291    -0.14900
C265        C  0.35437488  0.63100560  0.50000694    -0.08800
C266        C  0.39326371  0.66989902  0.50000646    -0.10400
C267        C  0.49720147  0.70810368  0.50000467    -0.08800
C268        C  0.55220465  0.70808839  0.50000319    -0.10400
C269        C  0.35442911  0.36813257  0.00000682    -0.08800
C270        C  0.39332115  0.32923224  0.00000626    -0.10400
C271        C  0.55225388  0.29095790  0.00000307    -0.08800
C272        C  0.49725075  0.29097428  0.00000441    -0.10400
C273        C  0.40258988  0.86996750  0.85317466    -0.14100
C274        C  0.40551763  0.83375755  0.88520758     0.10000
C275        C  0.41173584  0.79339323  0.92385212     0.11800
C276        C  0.41954850  0.76087766  0.95777463    -0.14900
C277        C  0.41955241  0.76087752  0.54223743    -0.14100
C278        C  0.41174188  0.79339334  0.57616011     0.10000
C279        C  0.40552447  0.83375730  0.61480453     0.11800
C280        C  0.40259652  0.86996744  0.64683753    -0.14900
C281        C  0.41958342  0.23824212  0.95777484    -0.14100
C282        C  0.41175972  0.20573186  0.92385200     0.10000
C283        C  0.40552946  0.16537248  0.88520714     0.11800
C284        C  0.40259480  0.12916427  0.85317389    -0.14900
C285        C  0.40260111  0.12916440  0.64683796    -0.14100
C286        C  0.40553632  0.16537227  0.61480482     0.10000
C287        C  0.41176571  0.20573193  0.57615991     0.11800
C288        C  0.41958735  0.23824191  0.54223696    -0.14900
loop_ 
_geom_bond_atom_site_label_1 
_geom_bond_atom_site_label_2 
_geom_bond_distance 
_geom_bond_site_symmetry_2 
_ccdc_geom_bond_type 
O1           Cu9   2.007   1_545  S
O1           C11   1.276       .  A
O2           Cu9   2.007       .  S
O2           C12   1.276       .  A
O3           Cu9   2.007       .  S
O3           C13   1.276       .  A
O4           Cu9   2.007   1_545  S
O4           C14   1.276       .  A
O5          Cu10   2.014   1_545  S
O5           C14   1.277       .  A
O6          Cu10   2.014       .  S
O6           C13   1.277       .  A
O7          Cu10   2.014       .  S
O7           C12   1.277       .  A
O8          Cu10   2.014   1_545  S
O8           C11   1.277       .  A
Cu9         Cu10   2.379       .  S
C11         C141   1.436       .  S
C12         C129   1.436       .  S
C13         C136   1.436       .  S
C14         C140   1.436       .  S
C15         C126   1.467       .  S
C15         C128   1.467       .  S
C15         C137   1.468       .  S
C15         C288   1.468       .  S
C16         C122   1.467       .  S
C16         C123   1.467       .  S
C16         C133   1.468       .  S
C16         C276   1.468   1_554  S
O17         Cu25   2.007       .  S
O17          C27   1.276       .  A
O18         Cu25   2.007   1_545  S
O18          C28   1.276       .  A
O19         Cu25   2.007   1_545  S
O19          C29   1.276       .  A
O20         Cu25   2.007       .  S
O20          C30   1.276       .  A
O21         Cu26   2.014       .  S
O21          C30   1.277       .  A
O22         Cu26   2.014   1_545  S
O22          C29   1.277       .  A
O23         Cu26   2.014   1_545  S
O23          C28   1.277       .  A
O24         Cu26   2.014       .  S
O24          C27   1.277       .  A
Cu25        Cu26   2.379       .  S
C27         C108   1.436       .  S
C28         C113   1.436       .  S
C29         C120   1.436       .  S
C30         C112   1.436       .  S
C31         C103   1.467       .  S
C31         C117   1.468       .  S
C31         C260   1.468   1_554  S
C31         C271   1.467       .  S
C32         C101   1.467       .  S
C32         C105   1.468       .  S
C32         C124   1.467       .  S
C32         C253   1.468   1_554  S
O33         Cu41   2.014       .  S
O33          C43   1.277       .  A
O34         Cu41   2.014   1_655  S
O34          C44   1.277       .  A
O35         Cu41   2.014   1_655  S
O35          C45   1.277       .  A
O36         Cu41   2.014       .  S
O36          C46   1.277       .  A
O37         Cu42   2.007       .  S
O37          C46   1.276       .  A
O38         Cu42   2.007   1_655  S
O38          C45   1.276       .  A
O39         Cu42   2.007   1_655  S
O39          C44   1.276       .  A
O40         Cu42   2.007       .  S
O40          C43   1.276       .  A
Cu41        Cu42   2.379       .  S
C43         C100   1.436       .  S
C44          C92   1.436       .  S
C45          C85   1.436       .  S
C46          C96   1.436       .  S
C47          C84   1.467       .  S
C47          C93   1.468       .  S
C47         C125   1.467       .  S
C47         C241   1.468       .  S
C48          C81   1.467       .  S
C48          C88   1.468       .  S
C48         C104   1.467       .  S
C48         C233   1.468   1_554  S
O49         Cu57   2.007   1_655  S
O49          C59   1.276       .  A
O50         Cu57   2.007       .  S
O50          C60   1.276       .  A
O51         Cu57   2.007       .  S
O51          C61   1.276       .  A
O52         Cu57   2.007   1_655  S
O52          C62   1.276       .  A
O53         Cu58   2.014   1_655  S
O53          C62   1.277       .  A
O54         Cu58   2.014       .  S
O54          C61   1.277       .  A
O55         Cu58   2.014       .  S
O55          C60   1.277       .  A
O56         Cu58   2.014   1_655  S
O56          C59   1.277       .  A
Cu57        Cu58   2.379       .  S
C59          C65   1.436       .  S
C60          C77   1.436       .  S
C61          C73   1.436       .  S
C62          C72   1.436       .  S
C63          C80   1.468       .  S
C63         C121   1.467       .  S
C63         C220   1.468   1_554  S
C63         C227   1.467       .  S
C64          C69   1.468       .  S
C64          C82   1.467       .  S
C64         C102   1.467       .  S
C64         C212   1.468   1_554  S
C65          C66   1.206       .  T
C66          C67   1.412       .  S
C67          C68   1.207       .  T
C68         C208   1.468       .  S
C69          C70   1.207       .  T
C70          C71   1.412       .  S
C71          C72   1.206       .  T
C73          C74   1.206       .  T
C74          C75   1.412       .  S
C75          C76   1.207       .  T
C76         C207   1.468       .  S
C77          C78   1.206       .  T
C78          C79   1.412       .  S
C79          C80   1.207       .  T
C81          C82   1.208       .  T
C83         C207   1.467       .  S
C83          C84   1.208       .  T
C85          C86   1.206       .  T
C86          C87   1.412       .  S
C87          C88   1.207       .  T
C89         C192   1.468       .  S
C89          C90   1.207       .  T
C90          C91   1.412       .  S
C91          C92   1.206       .  T
C93          C94   1.207       .  T
C94          C95   1.412       .  S
C95          C96   1.206       .  T
C97         C191   1.468       .  S
C97          C98   1.207       .  T
C98          C99   1.412       .  S
C99         C100   1.206       .  T
C101        C102   1.208       .  T
C103        C104   1.208       .  T
C105        C106   1.207       .  T
C106        C107   1.412       .  S
C107        C108   1.206       .  T
C109        C176   1.468       .  S
C109        C110   1.207       .  T
C110        C111   1.412       .  S
C111        C112   1.206       .  T
C113        C114   1.206       .  T
C114        C115   1.412       .  S
C115        C116   1.207       .  T
C116        C175   1.468       .  S
C117        C118   1.207       .  T
C118        C119   1.412       .  S
C119        C120   1.206       .  T
C121        C122   1.208       .  T
C123        C124   1.208       .  T
C125        C126   1.208       .  T
C127        C175   1.467       .  S
C127        C128   1.208       .  T
C129        C130   1.206       .  T
C130        C131   1.412       .  S
C131        C132   1.207       .  T
C132        C160   1.468       .  S
C133        C134   1.207       .  T
C134        C135   1.412       .  S
C135        C136   1.206       .  T
C137        C138   1.207       .  T
C138        C139   1.412       .  S
C139        C140   1.206       .  T
C141        C142   1.206       .  T
C142        C143   1.412       .  S
C143        C144   1.207       .  T
C144        C159   1.468       .  S
O145       Cu153   2.007   1_545  S
O145        C155   1.276       .  A
O146       Cu153   2.007       .  S
O146        C156   1.276       .  A
O147       Cu153   2.007       .  S
O147        C157   1.276       .  A
O148       Cu153   2.007   1_545  S
O148        C158   1.276       .  A
O149       Cu154   2.014   1_545  S
O149        C158   1.277       .  A
O150       Cu154   2.014       .  S
O150        C157   1.277       .  A
O151       Cu154   2.014       .  S
O151        C156   1.277       .  A
O152       Cu154   2.014   1_545  S
O152        C155   1.277       .  A
Cu153      Cu154   2.379       .  S
C155        C285   1.436       .  S
C156        C273   1.436       .  S
C157        C280   1.436       .  S
C158        C284   1.436       .  S
C159        C270   1.467       .  S
C159        C272   1.467       .  S
C159        C281   1.468   1_554  S
C160        C266   1.467       .  S
C160        C267   1.467       .  S
C160        C277   1.468       .  S
O161       Cu169   2.007       .  S
O161        C171   1.276       .  A
O162       Cu169   2.007   1_545  S
O162        C172   1.276       .  A
O163       Cu169   2.007   1_545  S
O163        C173   1.276       .  A
O164       Cu169   2.007       .  S
O164        C174   1.276       .  A
O165       Cu170   2.014       .  S
O165        C174   1.277       .  A
O166       Cu170   2.014   1_545  S
O166        C173   1.277       .  A
O167       Cu170   2.014   1_545  S
O167        C172   1.277       .  A
O168       Cu170   2.014       .  S
O168        C171   1.277       .  A
Cu169      Cu170   2.379       .  S
C171        C252   1.436       .  S
C172        C257   1.436       .  S
C173        C264   1.436       .  S
C174        C256   1.436       .  S
C175        C247   1.467       .  S
C175        C261   1.468       .  S
C176        C245   1.467       .  S
C176        C249   1.468       .  S
C176        C268   1.467       .  S
O177       Cu185   2.014       .  S
O177        C187   1.277       .  A
O178       Cu185   2.014   1_655  S
O178        C188   1.277       .  A
O179       Cu185   2.014   1_655  S
O179        C189   1.277       .  A
O180       Cu185   2.014       .  S
O180        C190   1.277       .  A
O181       Cu186   2.007       .  S
O181        C190   1.276       .  A
O182       Cu186   2.007   1_655  S
O182        C189   1.276       .  A
O183       Cu186   2.007   1_655  S
O183        C188   1.276       .  A
O184       Cu186   2.007       .  S
O184        C187   1.276       .  A
Cu185      Cu186   2.379       .  S
C187        C244   1.436       .  S
C188        C236   1.436       .  S
C189        C229   1.436       .  S
C190        C240   1.436       .  S
C191        C228   1.467       .  S
C191        C237   1.468   1_554  S
C191        C269   1.467       .  S
C192        C225   1.467       .  S
C192        C232   1.468       .  S
C192        C248   1.467       .  S
O193       Cu201   2.007   1_655  S
O193        C203   1.276       .  A
O194       Cu201   2.007       .  S
O194        C204   1.276       .  A
O195       Cu201   2.007       .  S
O195        C205   1.276       .  A
O196       Cu201   2.007   1_655  S
O196        C206   1.276       .  A
O197       Cu202   2.014   1_655  S
O197        C206   1.277       .  A
O198       Cu202   2.014       .  S
O198        C205   1.277       .  A
O199       Cu202   2.014       .  S
O199        C204   1.277       .  A
O200       Cu202   2.014   1_655  S
O200        C203   1.277       .  A
Cu201      Cu202   2.379       .  S
C203        C209   1.436       .  S
C204        C221   1.436       .  S
C205        C217   1.436       .  S
C206        C216   1.436       .  S
C207        C224   1.468       .  S
C207        C265   1.467       .  S
C208        C213   1.468       .  S
C208        C226   1.467       .  S
C208        C246   1.467       .  S
C209        C210   1.206       .  T
C210        C211   1.412       .  S
C211        C212   1.207       .  T
C213        C214   1.207       .  T
C214        C215   1.412       .  S
C215        C216   1.206       .  T
C217        C218   1.206       .  T
C218        C219   1.412       .  S
C219        C220   1.207       .  T
C221        C222   1.206       .  T
C222        C223   1.412       .  S
C223        C224   1.207       .  T
C225        C226   1.208       .  T
C227        C228   1.208       .  T
C229        C230   1.206       .  T
C230        C231   1.412       .  S
C231        C232   1.207       .  T
C233        C234   1.207       .  T
C234        C235   1.412       .  S
C235        C236   1.206       .  T
C237        C238   1.207       .  T
C238        C239   1.412       .  S
C239        C240   1.206       .  T
C241        C242   1.207       .  T
C242        C243   1.412       .  S
C243        C244   1.206       .  T
C245        C246   1.208       .  T
C247        C248   1.208       .  T
C249        C250   1.207       .  T
C250        C251   1.412       .  S
C251        C252   1.206       .  T
C253        C254   1.207       .  T
C254        C255   1.412       .  S
C255        C256   1.206       .  T
C257        C258   1.206       .  T
C258        C259   1.412       .  S
C259        C260   1.207       .  T
C261        C262   1.207       .  T
C262        C263   1.412       .  S
C263        C264   1.206       .  T
C265        C266   1.208       .  T
C267        C268   1.208       .  T
C269        C270   1.208       .  T
C271        C272   1.208       .  T
C273        C274   1.206       .  T
C274        C275   1.412       .  S
C275        C276   1.207       .  T
C277        C278   1.207       .  T
C278        C279   1.412       .  S
C279        C280   1.206       .  T
C281        C282   1.207       .  T
C282        C283   1.412       .  S
C283        C284   1.206       .  T
C285        C286   1.206       .  T
C286        C287   1.412       .  S
C287        C288   1.207       .  T
