geometry optimzed in LAMMPS
_audit_creation_date              2020-11-30 
_audit_creation_method            'lammps2cif' 
_symmetry_space_group_name_H-M    'P1' 
_symmetry_Int_Tables_number       1 
_symmetry_cell_setting            triclinic 
loop_ 
_symmetry_equiv_pos_as_xyz 
  x,y,z 
_cell_length_a                    38.76513344 
_cell_length_b                    38.65611044086543 
_cell_length_c                    33.21435244216901 
_cell_angle_alpha                 90.07583431627496 
_cell_angle_beta                  90.09515324051556 
_cell_angle_gamma                 90.02837640488335 
loop_ 
_atom_site_label 
_atom_site_type_symbol 
_atom_site_fract_x 
_atom_site_fract_y 
_atom_site_fract_z 
_atom_site_charge 
N1          N  0.74276073  0.73561445  0.56185483    -0.26900
N2          N  0.72049729  0.71632199  0.58196548    -0.34800
C3          C  0.72505164  0.72142261  0.62162215     0.01400
C4          C  0.75151200  0.74489506  0.62670694     0.07400
C5          C  0.76225932  0.75335760  0.58828262    -0.05700
H6          H  0.71002585  0.70909041  0.64498878     0.08100
H7          H  0.78221691  0.77157551  0.58003118     0.09300
Cu8        Cu  0.68472060  0.68395870  0.55540015     0.44200
Cu9        Cu  0.74463288  0.73856046  0.49953405     0.42000
Cu10       Cu  0.68240191  0.68582270  0.44704531     0.43900
N11         N  0.65299181  0.65257774  0.52130857    -0.34300
N12         N  0.65219612  0.65321797  0.48153693    -0.28600
C13         C  0.62952666  0.62944214  0.46835619    -0.04700
C14         C  0.61546548  0.61312651  0.50148843     0.07500
C15         C  0.63083621  0.62841370  0.53457877     0.01300
H16         H  0.62376357  0.62442929  0.43700091     0.09000
H17         H  0.62636079  0.62239943  0.56594625     0.08100
N18         N  0.71641313  0.71878655  0.41829397    -0.35800
N19         N  0.73935394  0.73812893  0.43736024    -0.27900
C20         C  0.75767673  0.75609654  0.41007428    -0.03200
C21         C  0.74572171  0.74746988  0.37210432     0.05400
C22         C  0.71955610  0.72378280  0.37843529     0.03500
H23         H  0.77837718  0.77383337  0.41733336     0.08600
H24         H  0.70403960  0.71091778  0.35583517     0.07500
N25         N  0.83965110  0.83795860  0.06269982    -0.26900
N26         N  0.86276840  0.85707732  0.08178834    -0.34800
C27         C  0.85939296  0.85227763  0.12165630     0.01400
C28         C  0.83288988  0.82896318  0.12796436     0.07400
C29         C  0.82098842  0.82033693  0.08997605    -0.05700
H30         H  0.87497537  0.86503264  0.14427895     0.08100
H31         H  0.80007560  0.80285922  0.08269488     0.09300
Cu32       Cu  0.89728312  0.88957620  0.05308340     0.44200
Cu33       Cu  0.83446518  0.83741404  0.00052004     0.42000
Cu34       Cu  0.89473221  0.89161391  0.94478290     0.43900
N35         N  0.92784257  0.92185461  0.01855742    -0.34300
N36         N  0.92691805  0.92256559  0.97879179    -0.28600
C37         C  0.94931464  0.94647399  0.96545364    -0.04700
C38         C  0.96499442  0.96152335  0.99848968     0.07500
C39         C  0.95085071  0.94533620  0.03166765     0.01300
H40         H  0.95372529  0.95249502  0.93407524     0.09000
H41         H  0.95676552  0.95026008  0.06300364     0.08100
N42         N  0.85867579  0.85963449  0.91814413    -0.35800
N43         N  0.83628988  0.84045117  0.93820628    -0.27900
C44         C  0.81655553  0.82302602  0.91172798    -0.03200
C45         C  0.82727011  0.83160187  0.87332144     0.05400
C46         C  0.85397004  0.85478464  0.87847262     0.03500
H47         H  0.79641607  0.80499208  0.91992543     0.08600
H48         H  0.86902518  0.86712533  0.85513823     0.07500
N49         N  0.74179802  0.33782011  0.56131615    -0.26900
N50         N  0.72040708  0.35800036  0.58157249    -0.34800
C51         C  0.72522502  0.35303856  0.62121989     0.01400
C52         C  0.75094923  0.32873014  0.62615974     0.07400
C53         C  0.76095134  0.31961207  0.58761725    -0.05700
H54         H  0.71108156  0.36626147  0.64470607     0.08100
H55         H  0.78045977  0.30095878  0.57921545     0.09300
Cu56       Cu  0.68575553  0.39171663  0.55502647     0.44200
Cu57       Cu  0.74363986  0.33532980  0.49892441     0.42000
Cu58       Cu  0.68560384  0.39273035  0.44641575     0.43900
N59         N  0.65420954  0.42358167  0.52112818    -0.34300
N60         N  0.65425952  0.42392602  0.48133283    -0.28600
C61         C  0.63112154  0.44726066  0.46832317    -0.04700
C62         C  0.61581666  0.46229527  0.50154853     0.07500
C63         C  0.63102362  0.44673172  0.53455819     0.01300
H64         H  0.62587249  0.45284146  0.43699376     0.09000
H65         H  0.62568561  0.45183173  0.56597519     0.08100
N66         N  0.71867233  0.35886422  0.41754300    -0.35800
N67         N  0.73983758  0.33766243  0.43664269    -0.27900
C68         C  0.75766637  0.31920499  0.40933046    -0.03200
C69         C  0.74724340  0.32940309  0.37131849     0.05400
C70         C  0.72249045  0.35456741  0.37763062     0.03500
H71         H  0.77695764  0.29998121  0.41662166     0.08600
H72         H  0.70833090  0.36882409  0.35499643     0.07500
N73         N  0.84197528  0.23754070  0.06263892    -0.26900
N74         N  0.86288840  0.21614405  0.08182214    -0.34800
C75         C  0.85894786  0.22045221  0.12171684     0.01400
C76         C  0.83437921  0.24582435  0.12792564     0.07400
C77         C  0.82418644  0.25612670  0.08987083    -0.05700
H78         H  0.87290723  0.20606957  0.14441184     0.08100
H79         H  0.80510003  0.27553069  0.08249274     0.09300
Cu80       Cu  0.89581881  0.18203627  0.05306124     0.44200
Cu81       Cu  0.83849017  0.24001317  0.00035540     0.42000
Cu82       Cu  0.89593364  0.18317097  0.94436746     0.43900
N83         N  0.92705199  0.15068075  0.01815296    -0.34300
N84         N  0.92717566  0.15105652  0.97835526    -0.28600
C85         C  0.95028567  0.12781458  0.96495469    -0.04700
C86         C  0.96537771  0.11216171  0.99797849     0.07500
C87         C  0.95007250  0.12723434  0.03118566     0.01300
H88         H  0.95567661  0.12273874  0.93354486     0.09000
H89         H  0.95525946  0.12161803  0.06252041     0.08100
N90         N  0.86175160  0.21733380  0.91773527    -0.35800
N91         N  0.84052155  0.23769224  0.93797859    -0.27900
C92         C  0.82167211  0.25621150  0.91167894    -0.03200
C93         C  0.83170737  0.24712122  0.87314279     0.05400
C94         C  0.85713409  0.22249425  0.87808594     0.03500
H95         H  0.80234820  0.27505698  0.92008099     0.08600
H96         H  0.87120286  0.20918818  0.85460210     0.07500
N97         N  0.33884516  0.73296621  0.43667645    -0.26900
N98         N  0.36204481  0.71415670  0.41740778    -0.34800
C99         C  0.35816077  0.71870639  0.37753840     0.01400
C100        C  0.33124467  0.74155743  0.37137649     0.07400
C101        C  0.31957193  0.75007325  0.40946485    -0.05700
H102        H  0.37403322  0.70651162  0.35484058     0.08100
H103        H  0.29882608  0.76766120  0.41688418     0.09300
Cu104      Cu  0.39825323  0.68344997  0.44589592     0.44200
Cu105      Cu  0.33535389  0.73523159  0.49914322     0.42000
Cu106      Cu  0.39924914  0.68590370  0.55475789     0.44500
N107        N  0.43043917  0.65324256  0.48090546    -0.34300
N108        N  0.43087350  0.65405016  0.52070112    -0.28600
C109        C  0.45364646  0.63049503  0.53417740    -0.04700
C110        C  0.46809964  0.61413629  0.50122606     0.07500
C111        C  0.45290452  0.62922788  0.46796418     0.01300
H112        H  0.45896683  0.62541346  0.56560605     0.09000
H113        H  0.45748108  0.62295070  0.43666849     0.08100
N114        N  0.36255228  0.71724828  0.58183351    -0.35800
N115        N  0.33896928  0.73490354  0.56167215    -0.27900
C116        C  0.31893512  0.75207033  0.58805141    -0.03200
C117        C  0.33050472  0.74483808  0.62660493     0.05400
C118        C  0.35815694  0.72271271  0.62150900     0.03500
H119        H  0.29760545  0.76861395  0.57969766     0.08600
H120        H  0.37392268  0.71134746  0.64491932     0.07500
N121        N  0.24041559  0.83946890  0.06327704    -0.26900
N122        N  0.21768713  0.85877130  0.08264914    -0.34800
C123        C  0.22161598  0.85412908  0.12250037     0.01400
C124        C  0.24807609  0.83071201  0.12853150     0.07400
C125        C  0.25943318  0.82196437  0.09038879    -0.05700
H126        H  0.20609243  0.86666330  0.14527738     0.08100
H127        H  0.27977435  0.80394017  0.08286211     0.09300
Cu128      Cu  0.18201015  0.89018654  0.05424689     0.44200
Cu129      Cu  0.24357921  0.83703899  0.00081220     0.42000
Cu130      Cu  0.18021365  0.88685226  0.94523128     0.43900
N131        N  0.15006760  0.92056666  0.01909306    -0.34300
N132        N  0.14933619  0.91941099  0.97930891    -0.28600
C133        C  0.12668028  0.94304891  0.96576710    -0.04700
C134        C  0.11258992  0.95980981  0.99865219     0.07500
C135        C  0.12789881  0.94489151  0.03195151     0.01300
H136        H  0.12112133  0.94784061  0.93433196     0.09000
H137        H  0.12353293  0.95143013  0.06321654     0.08100
N138        N  0.21635086  0.85488704  0.91813130    -0.35800
N139        N  0.23979634  0.83707207  0.93831255    -0.27900
C140        C  0.25958452  0.81957872  0.91197425    -0.03200
C141        C  0.24799236  0.82675756  0.87341920     0.05400
C142        C  0.22058014  0.84919359  0.87847326     0.03500
H143        H  0.28078335  0.80287780  0.92035645     0.08600
H144        H  0.20490661  0.86065878  0.85504481     0.07500
O145        O  0.00266917  0.00023679  0.96488873    -0.72600
O146        O  0.07674963  0.07277403  0.96479681    -0.73600
O147        O  0.07561121  0.99923896  0.96491457    -0.62200
O148        O  0.00349752  0.07362760  0.96456555    -0.70600
O149        O  0.00333429  0.07358857  0.03144219    -0.70200
O150        O  0.07578782  0.99967315  0.03179346    -0.61400
O151        O  0.07645684  0.07306957  0.03166736    -0.73900
O152        O  0.00292588  0.00026233  0.03177627    -0.72700
Cu153      Cu  0.03963931  0.03649740  0.96242887     1.04600
Cu154      Cu  0.03963211  0.03669459  0.03399952     1.04300
C155        C  0.99136781  0.98866221  0.99837000     0.93600
C156        C  0.08823483  0.08435056  0.99828719     0.92700
C157        C  0.08684812  0.98758377  0.99842026     0.84900
C158        C  0.99198378  0.08521150  0.99796939     0.91200
O159        O  0.57789105  0.57414307  0.46804900    -0.72600
O160        O  0.50466034  0.50101565  0.46782351    -0.73600
O161        O  0.50504891  0.57447099  0.46796223    -0.62200
O162        O  0.57776282  0.50080129  0.46813662    -0.70600
O163        O  0.57758356  0.50065802  0.53501424    -0.70200
O164        O  0.50514896  0.57470349  0.53484190    -0.61400
O165        O  0.50436689  0.50114642  0.53469414    -0.73900
O166        O  0.57806406  0.57405673  0.53493733    -0.72700
Cu167      Cu  0.54133523  0.53756859  0.46565845     1.04600
Cu168      Cu  0.54128040  0.53760693  0.53722994     1.04300
C169        C  0.58932746  0.58576385  0.50150346     0.93600
C170        C  0.49297297  0.48955843  0.50116672     0.92700
C171        C  0.49392224  0.58643422  0.50136976     0.84900
C172        C  0.58913796  0.48916296  0.50159120     0.91200
N173        N  0.23871318  0.23666932  0.06210591    -0.26900
N174        N  0.21828804  0.21543574  0.08219655    -0.34800
C175        C  0.22367379  0.21982561  0.12193208     0.01400
C176        C  0.24868377  0.24499886  0.12701440     0.07400
C177        C  0.25762507  0.25511484  0.08846982    -0.05700
H178        H  0.21045539  0.20563982  0.14535670     0.08100
H179        H  0.27657157  0.27433641  0.08008268     0.09300
Cu180      Cu  0.18447548  0.18126106  0.05435565     0.44200
Cu181      Cu  0.24052766  0.23935585  0.99973513     0.42000
Cu182      Cu  0.18603213  0.18034055  0.94454188     0.43900
N183        N  0.15364865  0.14949678  0.01895045    -0.34300
N184        N  0.15425661  0.14913475  0.97912379    -0.28600
C185        C  0.13113087  0.12588300  0.96562913    -0.04700
C186        C  0.11526790  0.11093585  0.99852924     0.07500
C187        C  0.13013424  0.12645856  0.03182615     0.01300
H188        H  0.12620220  0.12036823  0.93419483     0.09000
H189        H  0.12425109  0.12147327  0.06311998     0.08100
N190        N  0.21935151  0.21497176  0.91705314    -0.35800
N191        N  0.23911440  0.23678564  0.93732931    -0.27900
C192        C  0.25749547  0.25580039  0.91111603    -0.03200
C193        C  0.24889659  0.24539403  0.87249168     0.05400
C194        C  0.22466627  0.21947759  0.87737297     0.03500
H195        H  0.27584016  0.27559664  0.91964555     0.08600
H196        H  0.21183102  0.20495393  0.85384478     0.07500
N197        N  0.34416518  0.33518309  0.56227310    -0.26900
N198        N  0.36354500  0.35736403  0.58251109    -0.34800
C199        C  0.35811231  0.35299407  0.62219168     0.01400
C200        C  0.33419734  0.32678780  0.62710998     0.07400
C201        C  0.32590798  0.31607271  0.58850817    -0.05700
H202        H  0.37064920  0.36780830  0.64569363     0.08100
H203        H  0.30787675  0.29598051  0.58000724     0.09300
Cu204      Cu  0.39648208  0.39230884  0.55493745     0.44200
Cu205      Cu  0.34308816  0.33224953  0.49988053     0.42000
Cu206      Cu  0.39813004  0.39120474  0.44509006     0.43900
N207        N  0.42778353  0.42393248  0.52028445    -0.34300
N208        N  0.42840962  0.42355021  0.48045712    -0.28600
C209        C  0.45158705  0.44693424  0.46757437    -0.04700
C210        C  0.46620727  0.46269892  0.50087141     0.07500
C211        C  0.45055813  0.44752944  0.53376922     0.01300
H212        H  0.45744881  0.45195149  0.43628206     0.09000
H213        H  0.45542198  0.45310364  0.56520315     0.08100
N214        N  0.36500045  0.35628241  0.41734944    -0.35800
N215        N  0.34495410  0.33472922  0.43750040    -0.27900
C216        C  0.32642107  0.31584218  0.41118853    -0.03200
C217        C  0.33522404  0.32599291  0.37261377     0.05400
C218        C  0.35975053  0.35165264  0.37762617     0.03500
H219        H  0.30781938  0.29630175  0.41962960     0.08600
H220        H  0.37271320  0.36602251  0.35415886     0.07500
C221        C  0.27096894  0.26434167  0.77249887     0.30100
C222        C  0.27013276  0.26078062  0.73045387    -0.36200
C223        C  0.29146260  0.28336387  0.70875779     0.16100
C224        C  0.31220384  0.30777857  0.72711450     0.21900
C225        C  0.31305290  0.31132780  0.76916100    -0.34300
C226        C  0.29172595  0.28874180  0.79085767     0.16000
O227        O  0.25313924  0.24594042  0.79863327    -0.26300
C228        C  0.26262252  0.25870077  0.83420993     0.05800
C229        C  0.28657668  0.28539193  0.83119818    -0.31200
O230        O  0.32998962  0.32621909  0.70097558    -0.23100
C231        C  0.32050723  0.31345653  0.66539934    -0.03100
C232        C  0.29659440  0.28672818  0.66841667    -0.17500
H233        H  0.25397901  0.24175095  0.71569331     0.20500
H234        H  0.32919724  0.33036566  0.78392091     0.18900
H235        H  0.29847479  0.30015961  0.85518959     0.18800
H236        H  0.28469056  0.27196327  0.64442678     0.14700
C237        C  0.27084501  0.26408814  0.22711907     0.30100
C238        C  0.26933278  0.26130515  0.26920749    -0.36200
C239        C  0.29144347  0.28323363  0.29091548     0.16100
C240        C  0.31353527  0.30631962  0.27253168     0.21900
C241        C  0.31507247  0.30907566  0.23044885    -0.34300
C242        C  0.29296226  0.28715440  0.20874484     0.16000
O243        O  0.25238335  0.24620116  0.20095961    -0.26300
C244        C  0.26281677  0.25797008  0.16535627     0.05800
C245        C  0.28804935  0.28346634  0.16838113    -0.31200
O246        O  0.33183932  0.32437493  0.29867828    -0.23100
C247        C  0.32135235  0.31269033  0.33429338    -0.03100
C248        C  0.29624132  0.28706561  0.33128820    -0.17500
H249        H  0.25209210  0.24334733  0.28399209     0.20500
H250        H  0.33226002  0.32708560  0.21566574     0.18900
H251        H  0.30086027  0.29731911  0.14438229     0.18800
H252        H  0.28335816  0.27330458  0.35530579     0.14700
C253        C  0.28942584  0.78812366  0.20833443     0.30100
C254        C  0.31264534  0.76507344  0.22651487    -0.36200
C255        C  0.31183070  0.76378395  0.26870851     0.16100
C256        C  0.28969084  0.78375174  0.29147090     0.21900
C257        C  0.26647837  0.80679438  0.27329311    -0.34300
C258        C  0.26730666  0.80809937  0.23111226     0.16000
O259        O  0.28574633  0.79347330  0.16934965    -0.26300
C260        C  0.26093373  0.81717615  0.16713441     0.05800
C261        C  0.24851003  0.82724696  0.20464344    -0.31200
O262        O  0.29340695  0.77848858  0.33045890    -0.23100
C263        C  0.31828261  0.75486647  0.33271929    -0.03100
C264        C  0.33070620  0.74474180  0.29522068    -0.17500
H265        H  0.33013013  0.74928330  0.20900220     0.20500
H266        H  0.24902165  0.82261370  0.29080795     0.18900
H267        H  0.22851016  0.84586871  0.21143965     0.18800
H268        H  0.35077266  0.72618065  0.28846560     0.14700
C269        C  0.31132312  0.76582893  0.72695433     0.30100
C270        C  0.31535173  0.76514237  0.76896107    -0.36200
C271        C  0.29225749  0.78562049  0.79107378     0.16100
C272        C  0.26692429  0.80539962  0.77311712     0.21900
C273        C  0.26288673  0.80607332  0.73111512    -0.34300
C274        C  0.28597952  0.78559811  0.70900376     0.16000
O275        O  0.33019537  0.74884158  0.70048715    -0.26300
C276        C  0.31677520  0.75783137  0.66509755     0.05800
C277        C  0.28915928  0.78062661  0.66856749    -0.31200
O278        O  0.24812550  0.82248563  0.79956632    -0.23100
C279        C  0.26157241  0.81354598  0.83495602    -0.03100
C280        C  0.28913320  0.79067759  0.83150479    -0.17500
H281        H  0.33512955  0.74975374  0.78338468     0.20500
H282        H  0.24313590  0.82149478  0.71668903     0.18900
H283        H  0.27379451  0.79200872  0.64480381     0.18800
H284        H  0.30453870  0.77935616  0.85527232     0.14700
C285        C  0.78890089  0.28783796  0.29115414     0.30100
C286        C  0.81170089  0.26449796  0.27282031    -0.36200
C287        C  0.81276248  0.26534333  0.23064276     0.16100
C288        C  0.79276358  0.28758566  0.20801661     0.21900
C289        C  0.76996038  0.31093549  0.22635362    -0.34300
C290        C  0.76888951  0.31008060  0.26854130     0.16000
O291        O  0.78388702  0.29156508  0.33016718    -0.26300
C292        C  0.76032849  0.31649014  0.33258395     0.05800
C293        C  0.75001376  0.32896589  0.29517616    -0.31200
O294        O  0.79776672  0.28380743  0.16900021    -0.23100
C295        C  0.82129500  0.25884185  0.16661868    -0.03100
C296        C  0.83160028  0.24640388  0.20403917    -0.17500
H297        H  0.82750546  0.24691694  0.29022165     0.20500
H298        H  0.75414329  0.32850492  0.20895180     0.18900
H299        H  0.73148888  0.34911581  0.28856179     0.18800
H300        H  0.85009479  0.22623424  0.21068659     0.14700
C301        C  0.76901135  0.30728331  0.72634855     0.30100
C302        C  0.76438256  0.30766683  0.76820785    -0.36200
C303        C  0.78787156  0.28794020  0.79059357     0.16100
C304        C  0.81406039  0.26906691  0.77299350     0.21900
C305        C  0.81870500  0.26870478  0.73113483    -0.34300
C306        C  0.79521058  0.28842545  0.70874738     0.16000
O307        O  0.75008380  0.32391205  0.69970014    -0.26300
C308        C  0.76426771  0.31552335  0.66458404     0.05800
C309        C  0.79243363  0.29348916  0.66833404    -0.31200
O310        O  0.83287129  0.25228777  0.79962960    -0.23100
C311        C  0.81862586  0.26060305  0.83473576    -0.03100
C312        C  0.79054515  0.28274729  0.83099148    -0.17500
H313        H  0.74388864  0.32231368  0.78232546     0.20500
H314        H  0.83915923  0.25400646  0.71701148     0.18900
H315        H  0.80856540  0.28288282  0.64478979     0.18800
H316        H  0.77434535  0.29327062  0.85452242     0.14700
C317        C  0.81139975  0.80794486  0.77339187     0.30100
C318        C  0.81765081  0.80640842  0.73188262    -0.36200
C319        C  0.79435410  0.78654044  0.70935433     0.16100
C320        C  0.76684224  0.76933013  0.72650218     0.21900
C321        C  0.76056713  0.77090173  0.76800383    -0.34300
C322        C  0.78387621  0.79075047  0.79053561     0.16000
O323        O  0.83004927  0.82478286  0.80015624    -0.26300
C324        C  0.81434104  0.81818126  0.83486504     0.05800
C325        C  0.78543382  0.79717706  0.83075903    -0.31200
O326        O  0.74835722  0.75225582  0.69978457    -0.23100
C327        C  0.76415753  0.75872151  0.66509885    -0.03100
C328        C  0.79294900  0.77989186  0.66917160    -0.17500
H329        H  0.83919812  0.81972240  0.71813826     0.20500
H330        H  0.73907656  0.75750772  0.78176407     0.18900
H331        H  0.76820835  0.78789832  0.85398164     0.18800
H332        H  0.81026589  0.78903735  0.64597014     0.14700
C333        C  0.78753528  0.78834153  0.29162416     0.30100
C334        C  0.81076587  0.81110560  0.27306814    -0.36200
C335        C  0.81135282  0.81029506  0.23086452     0.16100
C336        C  0.79047436  0.78867108  0.20841578     0.21900
C337        C  0.76722377  0.76592475  0.22697112    -0.34300
C338        C  0.76665427  0.76671838  0.26917721     0.16000
O339        O  0.78292587  0.78457002  0.33070174    -0.26300
C340        C  0.75871407  0.76027357  0.33330496     0.05800
C341        C  0.74760265  0.74824104  0.29597030    -0.31200
O342        O  0.79524818  0.79228519  0.16934413    -0.23100
C343        C  0.81957164  0.81647191  0.16675132    -0.03100
C344        C  0.83057401  0.82860625  0.20408325    -0.17500
H345        H  0.82728306  0.82817554  0.29031935     0.20500
H346        H  0.75076517  0.74879612  0.20972256     0.18900
H347        H  0.72849902  0.72857700  0.28949941     0.18800
H348        H  0.84978409  0.84816428  0.21056070     0.14700
loop_ 
_geom_bond_atom_site_label_1 
_geom_bond_atom_site_label_2 
_geom_bond_distance 
_geom_bond_site_symmetry_2 
_ccdc_geom_bond_type 
N1            N2   1.323       .  A
N1            C5   1.345       .  A
N1           Cu9   2.075       .  S
N2            C3   1.343       .  A
N2           Cu8   2.064       .  S
C3            C4   1.379       .  A
C3            H6   1.082       .  S
C4            C5   1.383       .  A
C4          C327   1.466       .  S
C5            H7   1.082       .  S
Cu8          N11   2.063       .  S
Cu9          N19   2.075       .  S
Cu10         N12   2.069       .  S
Cu10         N18   2.069       .  S
N11          N12   1.322       .  A
N11          C15   1.344       .  A
N12          C13   1.344       .  A
C13          C14   1.382       .  A
C13          H16   1.082       .  S
C14          C15   1.381       .  A
C14         C169   1.464       .  S
C15          H17   1.082       .  S
N18          N19   1.322       .  A
N18          C22   1.344       .  A
N19          C20   1.346       .  A
C20          C21   1.383       .  A
C20          H23   1.082       .  S
C21          C22   1.383       .  A
C21         C340   1.471       .  S
C22          H24   1.082       .  S
N25          N26   1.322       .  A
N25          C29   1.346       .  A
N25         Cu33   2.075       .  S
N26          C27   1.344       .  A
N26         Cu32   2.070       .  S
C27          C28   1.383       .  A
C27          H30   1.082       .  S
C28          C29   1.383       .  A
C28         C343   1.471       .  S
C29          H31   1.082       .  S
Cu32         N35   2.069       .  S
Cu33         N43   2.075   1_554  S
Cu34         N36   2.063       .  S
Cu34         N42   2.063       .  S
N35          N36   1.322   1_554  A
N35          C39   1.344       .  A
N36          C37   1.344       .  A
C37          C38   1.381       .  A
C37          H40   1.082       .  S
C38          C39   1.382   1_556  A
C38         C155   1.465       .  S
C39          H41   1.082       .  S
N42          N43   1.323       .  A
N42          C46   1.343       .  A
N43          C44   1.345       .  A
C44          C45   1.383       .  A
C44          H47   1.082       .  S
C45          C46   1.379       .  A
C45         C324   1.466       .  S
C46          H48   1.082       .  S
N49          N50   1.323       .  A
N49          C53   1.345       .  A
N49         Cu57   2.076       .  S
N50          C51   1.344       .  A
N50         Cu56   2.069       .  S
C51          C52   1.380       .  A
C51          H54   1.082       .  S
C52          C53   1.383       .  A
C52         C308   1.468       .  S
C53          H55   1.082       .  S
Cu56         N59   2.069       .  S
Cu57         N67   2.076       .  S
Cu58         N60   2.068       .  S
Cu58         N66   2.069       .  S
N59          N60   1.322       .  A
N59          C63   1.345       .  A
N60          C61   1.344       .  A
C61          C62   1.381       .  A
C61          H64   1.082       .  S
C62          C63   1.383       .  A
C62         C172   1.466       .  S
C63          H65   1.082       .  S
N66          N67   1.322       .  A
N66          C70   1.344       .  A
N67          C68   1.346       .  A
C68          C69   1.383       .  A
C68          H71   1.082       .  S
C69          C70   1.383       .  A
C69         C292   1.471       .  S
C70          H72   1.082       .  S
N73          N74   1.322       .  A
N73          C77   1.346       .  A
N73         Cu81   2.075       .  S
N74          C75   1.344       .  A
N74         Cu80   2.070       .  S
C75          C76   1.383       .  A
C75          H78   1.082       .  S
C76          C77   1.383       .  A
C76         C295   1.471       .  S
C77          H79   1.082       .  S
Cu80         N83   2.069       .  S
Cu81         N91   2.075   1_554  S
Cu82         N84   2.070       .  S
Cu82         N90   2.070       .  S
N83          N84   1.322   1_554  A
N83          C87   1.344       .  A
N84          C85   1.345       .  A
C85          C86   1.383       .  A
C85          H88   1.082       .  S
C86          C87   1.382   1_556  A
C86         C158   1.466       .  S
C87          H89   1.082       .  S
N90          N91   1.323       .  A
N90          C94   1.344       .  A
N91          C92   1.345       .  A
C92          C93   1.383       .  A
C92          H95   1.082       .  S
C93          C94   1.380       .  A
C93         C311   1.468       .  S
C94          H96   1.082       .  S
N97          N98   1.322       .  A
N97         C101   1.346       .  A
N97        Cu105   2.081       .  S
N98          C99   1.344       .  A
N98        Cu104   2.068       .  S
C99         C100   1.383       .  A
C99         H102   1.082       .  S
C100        C101   1.384       .  A
C100        C263   1.472       .  S
C101        H103   1.082       .  S
Cu104       N107   2.067       .  S
Cu105       N115   2.081       .  S
Cu106       N108   2.074       .  S
Cu106       N114   2.075       .  S
N107        N108   1.322       .  A
N107        C111   1.344       .  A
N108        C109   1.345       .  A
C109        C110   1.383       .  A
C109        H112   1.082       .  S
C110        C111   1.381       .  A
C110        C171   1.466       .  S
C111        H113   1.082       .  S
N114        N115   1.323       .  A
N114        C118   1.345       .  A
N115        C116   1.346       .  A
C116        C117   1.385       .  A
C116        H119   1.082       .  S
C117        C118   1.382       .  A
C117        C276   1.473       .  S
C118        H120   1.082       .  S
N121        N122   1.322       .  A
N121        C125   1.346       .  A
N121       Cu129   2.081       .  S
N122        C123   1.344       .  A
N122       Cu128   2.068       .  S
C123        C124   1.383       .  A
C123        H126   1.082       .  S
C124        C125   1.383       .  A
C124        C260   1.472       .  S
C125        H127   1.082       .  S
Cu128       N131   2.068       .  S
Cu129       N139   2.081   1_554  S
Cu130       N132   2.074       .  S
Cu130       N138   2.074       .  S
N131        N132   1.322   1_554  A
N131        C135   1.344       .  A
N132        C133   1.345       .  A
C133        C134   1.383       .  A
C133        H136   1.082       .  S
C134        C135   1.381   1_556  A
C134        C157   1.466       .  S
C135        H137   1.082       .  S
N138        N139   1.323       .  A
N138        C142   1.345       .  A
N139        C140   1.346       .  A
C140        C141   1.385       .  A
C140        H143   1.082       .  S
C141        C142   1.382       .  A
C141        C279   1.473       .  S
C142        H144   1.082       .  S
O145       Cu153   2.006       .  S
O145        C155   1.277   1_445  A
O146       Cu153   2.010       .  S
O146        C156   1.278       .  A
O147       Cu153   2.007   1_565  S
O147        C157   1.277       .  A
O148       Cu153   2.008       .  S
O148        C158   1.277   1_455  A
O149       Cu154   2.006       .  S
O149        C158   1.277   1_454  A
O150       Cu154   2.005   1_565  S
O150        C157   1.277   1_554  A
O151       Cu154   2.005       .  S
O151        C156   1.277   1_554  A
O152       Cu154   2.003       .  S
O152        C155   1.277   1_444  A
Cu153      Cu154   2.377   1_556  S
C156        C186   1.467       .  S
O159       Cu167   2.003       .  S
O159        C169   1.277       .  A
O160       Cu167   2.005       .  S
O160        C170   1.277       .  A
O161       Cu167   2.005       .  S
O161        C171   1.277       .  A
O162       Cu167   2.006       .  S
O162        C172   1.277       .  A
O163       Cu168   2.007       .  S
O163        C172   1.277       .  A
O164       Cu168   2.007       .  S
O164        C171   1.277       .  A
O165       Cu168   2.010       .  S
O165        C170   1.278       .  A
O166       Cu168   2.006       .  S
O166        C169   1.277       .  A
Cu167      Cu168   2.377       .  S
C170        C210   1.468       .  S
N173        N174   1.322       .  A
N173        C177   1.345       .  A
N173       Cu181   2.076   1_554  S
N174        C175   1.346       .  A
N174       Cu180   2.076       .  S
C175        C176   1.383       .  A
C175        H178   1.082       .  S
C176        C177   1.384       .  A
C176        C244   1.473       .  S
C177        H179   1.082       .  S
Cu180       N183   2.076       .  S
Cu181       N191   2.076       .  S
Cu182       N184   2.073       .  S
Cu182       N190   2.074       .  S
N183        N184   1.323   1_554  A
N183        C187   1.345       .  A
N184        C185   1.345       .  A
C185        C186   1.382       .  A
C185        H188   1.082       .  S
C186        C187   1.382   1_556  A
C187        H189   1.082       .  S
N190        N191   1.322       .  A
N190        C194   1.346       .  A
N191        C192   1.345       .  A
C192        C193   1.384       .  A
C192        H195   1.082       .  S
C193        C194   1.383       .  A
C193        C228   1.472       .  S
C194        H196   1.082       .  S
N197        N198   1.322       .  A
N197        C201   1.345       .  A
N197       Cu205   2.076       .  S
N198        C199   1.346       .  A
N198       Cu204   2.073       .  S
C199        C200   1.383       .  A
C199        H202   1.082       .  S
C200        C201   1.384       .  A
C200        C231   1.473       .  S
C201        H203   1.082       .  S
Cu204       N207   2.073       .  S
Cu205       N215   2.076       .  S
Cu206       N208   2.076       .  S
Cu206       N214   2.076       .  S
N207        N208   1.323       .  A
N207        C211   1.345       .  A
N208        C209   1.345       .  A
C209        C210   1.383       .  A
C209        H212   1.082       .  S
C210        C211   1.382       .  A
C211        H213   1.082       .  S
N214        N215   1.322       .  A
N214        C218   1.346       .  A
N215        C216   1.345       .  A
C216        C217   1.384       .  A
C216        H219   1.082       .  S
C217        C218   1.383       .  A
C217        C247   1.473       .  S
C218        H220   1.082       .  S
C221        C226   1.380       .  A
C221        C222   1.403       .  A
C221        O227   1.319       .  A
C222        C223   1.403       .  A
C222        H233   1.082       .  S
C223        C232   1.361       .  A
C223        C224   1.380       .  A
C224        C225   1.403       .  A
C224        O230   1.319       .  A
C225        C226   1.403       .  A
C225        H234   1.082       .  S
C226        C229   1.361       .  A
O227        C228   1.331       .  A
C228        C229   1.392       .  A
C229        H235   1.082       .  S
O230        C231   1.331       .  A
C231        C232   1.392       .  A
C232        H236   1.082       .  S
C237        C242   1.380       .  A
C237        C238   1.404       .  A
C237        O243   1.319       .  A
C238        C239   1.403       .  A
C238        H249   1.082       .  S
C239        C248   1.361       .  A
C239        C240   1.380       .  A
C240        C241   1.403       .  A
C240        O246   1.319       .  A
C241        C242   1.403       .  A
C241        H250   1.082       .  S
C242        C245   1.361       .  A
O243        C244   1.331       .  A
C244        C245   1.392       .  A
C245        H251   1.082       .  S
O246        C247   1.331       .  A
C247        C248   1.392       .  A
C248        H252   1.082       .  S
C253        C258   1.380       .  A
C253        C254   1.403       .  A
C253        O259   1.319       .  A
C254        C255   1.403       .  A
C254        H265   1.082       .  S
C255        C264   1.361       .  A
C255        C256   1.380       .  A
C256        C257   1.403       .  A
C256        O262   1.319       .  A
C257        C258   1.402       .  A
C257        H266   1.082       .  S
C258        C261   1.361       .  A
O259        C260   1.331       .  A
C260        C261   1.392       .  A
C261        H267   1.082       .  S
O262        C263   1.330       .  A
C263        C264   1.392       .  A
C264        H268   1.082       .  S
C269        C274   1.380       .  A
C269        C270   1.404       .  A
C269        O275   1.319       .  A
C270        C271   1.403       .  A
C270        H281   1.082       .  S
C271        C280   1.362       .  A
C271        C272   1.380       .  A
C272        C273   1.404       .  A
C272        O278   1.319       .  A
C273        C274   1.403       .  A
C273        H282   1.082       .  S
C274        C277   1.362       .  A
O275        C276   1.331       .  A
C276        C277   1.392       .  A
C277        H283   1.082       .  S
O278        C279   1.331       .  A
C279        C280   1.392       .  A
C280        H284   1.082       .  S
C285        C290   1.380       .  A
C285        C286   1.403       .  A
C285        O291   1.318       .  A
C286        C287   1.402       .  A
C286        H297   1.082       .  S
C287        C296   1.361       .  A
C287        C288   1.380       .  A
C288        C289   1.403       .  A
C288        O294   1.319       .  A
C289        C290   1.402       .  A
C289        H298   1.082       .  S
C290        C293   1.361       .  A
O291        C292   1.330       .  A
C292        C293   1.392       .  A
C293        H299   1.082       .  S
O294        C295   1.331       .  A
C295        C296   1.391       .  A
C296        H300   1.082       .  S
C301        C306   1.381       .  A
C301        C302   1.402       .  A
C301        O307   1.317       .  A
C302        C303   1.401       .  A
C302        H313   1.083       .  S
C303        C312   1.361       .  A
C303        C304   1.381       .  A
C304        C305   1.402       .  A
C304        O310   1.317       .  A
C305        C306   1.401       .  A
C305        H314   1.083       .  S
C306        C309   1.361       .  A
O307        C308   1.330       .  A
C308        C309   1.391       .  A
C309        H315   1.082       .  S
O310        C311   1.330       .  A
C311        C312   1.391       .  A
C312        H316   1.082       .  S
C317        C322   1.381       .  A
C317        C318   1.401       .  A
C317        O323   1.316       .  A
C318        C319   1.400       .  A
C318        H329   1.083       .  S
C319        C328   1.360       .  A
C319        C320   1.381       .  A
C320        C321   1.401       .  A
C320        O326   1.316       .  A
C321        C322   1.400       .  A
C321        H330   1.083       .  S
C322        C325   1.360       .  A
O323        C324   1.330       .  A
C324        C325   1.390       .  A
C325        H331   1.082       .  S
O326        C327   1.330       .  A
C327        C328   1.390       .  A
C328        H332   1.082       .  S
C333        C338   1.380       .  A
C333        C334   1.403       .  A
C333        O339   1.319       .  A
C334        C335   1.402       .  A
C334        H345   1.082       .  S
C335        C344   1.360       .  A
C335        C336   1.380       .  A
C336        C337   1.403       .  A
C336        O342   1.319       .  A
C337        C338   1.402       .  A
C337        H346   1.082       .  S
C338        C341   1.360       .  A
O339        C340   1.330       .  A
C340        C341   1.391       .  A
C341        H347   1.082       .  S
O342        C343   1.331       .  A
C343        C344   1.391       .  A
C344        H348   1.082       .  S
