geometry optimzed in LAMMPS
_audit_creation_date              2020-11-30 
_audit_creation_method            'lammps2cif' 
_symmetry_space_group_name_H-M    'P1' 
_symmetry_Int_Tables_number       1 
_symmetry_cell_setting            triclinic 
loop_ 
_symmetry_equiv_pos_as_xyz 
  x,y,z 
_cell_length_a                    27.34310381 
_cell_length_b                    27.331196910213226 
_cell_length_c                    23.540139752743986 
_cell_angle_alpha                 89.99451460964985 
_cell_angle_beta                  90.00540809072928 
_cell_angle_gamma                 90.00022632204424 
loop_ 
_atom_site_label 
_atom_site_type_symbol 
_atom_site_fract_x 
_atom_site_fract_y 
_atom_site_fract_z 
_atom_site_charge 
C1          C  0.66856775  0.66041619  0.24999371     0.83700
N2          N  0.68624616  0.67784026  0.20007462    -0.74600
C3          C  0.72158562  0.71269915  0.20005921     0.86100
N4          N  0.73923765  0.73015205  0.24999859    -0.74600
C5          C  0.72155706  0.71272256  0.29993523     0.86200
N6          N  0.68621834  0.67786366  0.29991446    -0.76300
C7          C  0.82639526  0.81827566  0.50000052     0.83700
N8          N  0.80895425  0.80061573  0.45008072    -0.74600
C9          C  0.77408401  0.76528725  0.45006261     0.86100
N10         N  0.75663732  0.74762596  0.50000063    -0.74600
C11         C  0.77414224  0.76524790  0.04993855     0.86200
N12         N  0.80897582  0.80061209  0.04992047    -0.76300
C13         C  0.66500047  0.31831518  0.24998627     0.83700
N14         N  0.68242388  0.30063873  0.20007454    -0.74600
C15         C  0.71726532  0.26528694  0.20006726     0.86100
N16         N  0.73470423  0.24761767  0.25000846    -0.74600
C17         C  0.71727564  0.26529853  0.29994142     0.86200
N18         N  0.68243123  0.30065218  0.29991319    -0.76300
C19         C  0.82281689  0.16051813  0.00001680     0.83700
N20         N  0.80526904  0.17798046  0.45009314    -0.74600
C21         C  0.76988535  0.21279481  0.45006845     0.86100
N22         N  0.75209129  0.23019481  0.00000219    -0.74600
C23         C  0.76977392  0.21276627  0.04994203     0.86200
N24         N  0.80513989  0.17793764  0.04993151    -0.76300
C25         C  0.32637684  0.66397687  0.25002749     0.83700
N26         N  0.30893705  0.68164911  0.29993677    -0.74600
C27         C  0.27409454  0.71700299  0.29993787     0.86100
N28         N  0.25667229  0.73467925  0.24999144    -0.74600
C29         C  0.27411372  0.71700692  0.20005960     0.86200
N30         N  0.30895850  0.68164970  0.20009551    -0.76300
C31         C  0.16842340  0.82171113  0.49998336     0.84300
N32         N  0.18616560  0.80442514  0.04990848    -0.74600
C33         C  0.22153653  0.76959469  0.04993394     0.86100
N34         N  0.23918467  0.75206914  0.49999784    -0.74600
C35         C  0.22149339  0.76948653  0.45005588     0.86200
N36         N  0.18611030  0.80429984  0.45006728    -0.76300
O37         O  0.94562922  0.04017456  0.45256571    -0.71000
O38         O  0.04574989  0.94210904  0.45254322    -0.71000
O39         O  0.94668638  0.94105166  0.45255447    -0.71100
O40         O  0.04470127  0.04122370  0.45255423    -0.71100
O41         O  0.04463719  0.04128560  0.04744634    -0.71000
O42         O  0.94664365  0.94109923  0.04744675    -0.71000
O43         O  0.04571718  0.94217029  0.04743469    -0.71000
O44         O  0.94556772  0.04021036  0.04745759    -0.71100
Ni45       Ni  0.99569024  0.99114115  0.44914287     1.25400
Ni46       Ni  0.99564098  0.99119186  0.05085797     1.25400
C47         C  0.92923524  0.05619466  0.00001474     0.91200
C48         C  0.06203759  0.92619717  0.99998579     0.91100
C49         C  0.93072637  0.92470765  0.50000046     0.91200
C50         C  0.06068852  0.05754096  0.50000015     0.91300
O51         O  0.54470016  0.44101373  0.29741497    -0.71000
O52         O  0.44673011  0.54122136  0.29750876    -0.71000
O53         O  0.44563802  0.44210159  0.29746020    -0.71100
O54         O  0.54580885  0.54011655  0.29745778    -0.71100
O55         O  0.54576519  0.54015621  0.20256552    -0.71000
O56         O  0.44559855  0.44214412  0.20256790    -0.71000
O57         O  0.44669258  0.54125738  0.20261685    -0.71000
O58         O  0.54466304  0.44105043  0.20252172    -0.71100
Ni59       Ni  0.49571973  0.49111290  0.30087287     1.25400
Ni60       Ni  0.49567687  0.49115501  0.19915684     1.25400
C61         C  0.56065150  0.42470252  0.24995586     0.91200
C62         C  0.43073898  0.55757140  0.25007524     0.91100
C63         C  0.42929983  0.42613802  0.25001296     0.91200
C64         C  0.56212318  0.55610325  0.25000999     0.91300
C65         C  0.16498861  0.16399139  0.99999956     0.83700
N66         N  0.18241475  0.18166472  0.04991954    -0.74600
C67         C  0.21725227  0.21702495  0.04993739     0.86100
N68         N  0.23468193  0.23470272  0.99999943    -0.74600
C69         C  0.21731813  0.21697456  0.45006142     0.86200
N70         N  0.18248248  0.18161199  0.45007967    -0.76300
C71         C  0.32294724  0.32173190  0.24999412     0.83700
N72         N  0.30525182  0.30432634  0.20007448    -0.74600
C73         C  0.26987255  0.26950787  0.20005822     0.86100
N74         N  0.25219497  0.25207984  0.24999704    -0.74600
C75         C  0.26989361  0.26949001  0.29993413     0.86200
N76         N  0.30527220  0.30430833  0.29991427    -0.76300
C77         C  0.23577915  0.23556734  0.39722259    -0.09800
C78         C  0.25128328  0.25104943  0.35277391    -0.11400
C79         C  0.25124068  0.25108325  0.14722108    -0.09800
C80         C  0.23572159  0.23561020  0.10277537    -0.11400
C81         C  0.39183580  0.38941308  0.25000755    -0.09800
C82         C  0.36037457  0.35852409  0.24999614    -0.11400
C83         C  0.12826877  0.12650334  0.49999964    -0.09800
C84         C  0.09739551  0.09502510  0.49999999    -0.11400
C85         C  0.09953456  0.88949217  0.99997829    -0.09800
C86         C  0.13102935  0.85862903  0.99997708    -0.11400
C87         C  0.36317163  0.62654812  0.25005959    -0.09800
C88         C  0.39404334  0.59506762  0.25009319    -0.11400
C89         C  0.24014649  0.75113073  0.10277561    -0.09800
C90         C  0.25565874  0.73561406  0.14721251    -0.11400
C91         C  0.25562152  0.73558871  0.35276988    -0.09800
C92         C  0.24011325  0.75105831  0.39721889    -0.11400
C93         C  0.89174684  0.09288974  0.00002216    -0.09800
C94         C  0.86025820  0.12374720  0.00002328    -0.11400
C95         C  0.62821044  0.35573633  0.24996304    -0.09800
C96         C  0.59734151  0.38721249  0.24993660    -0.11400
C97         C  0.75118227  0.23121266  0.10277671    -0.09800
C98         C  0.73570867  0.24669111  0.14723357    -0.11400
C99         C  0.73574470  0.24671343  0.35278345    -0.09800
C100        C  0.75126182  0.23123063  0.39722876    -0.11400
C101        C  0.89404984  0.88719380  0.50000046    -0.09800
C102        C  0.86319358  0.85569896  0.50000043    -0.11400
C103        C  0.63113579  0.62362846  0.24999423    -0.09800
C104        C  0.59963722  0.59277737  0.25000385    -0.11400
C105        C  0.75562161  0.74669567  0.39722381    -0.09800
C106        C  0.74013425  0.73119612  0.35277541    -0.11400
C107        C  0.75568585  0.74664964  0.10277672    -0.09800
C108        C  0.74018801  0.73115474  0.14722240    -0.11400
C109        C  0.66856775  0.66041627  0.75000780     0.83700
N110        N  0.68621816  0.67786380  0.70008702    -0.74600
C111        C  0.72155689  0.71272271  0.70006613     0.86100
N112        N  0.73923763  0.73015213  0.75000271    -0.74600
C113        C  0.72158577  0.71269919  0.79994212     0.86200
N114        N  0.68624631  0.67784025  0.79992686    -0.76300
C115        C  0.82639840  0.81828908  0.00000049     0.83700
N116        N  0.80897603  0.80061207  0.95008044    -0.74600
C117        C  0.77414238  0.76524796  0.95006253     0.86100
N118        N  0.75671301  0.74756990  0.00000051    -0.74600
C119        C  0.77408389  0.76528727  0.54993861     0.86200
N120        N  0.80895415  0.80061575  0.54992040    -0.76300
C121        C  0.66500054  0.31831515  0.74998020     0.83700
N122        N  0.68243081  0.30065284  0.70006038    -0.74600
C123        C  0.71727541  0.26529904  0.70004684     0.86100
N124        N  0.73470433  0.24761775  0.74998727    -0.74600
C125        C  0.71726581  0.26528655  0.79992100     0.86200
N126        N  0.68242446  0.30063817  0.79989903    -0.76300
C127        C  0.82295780  0.16056677  0.50001672     0.83700
N128        N  0.80513932  0.17793824  0.95009501    -0.74600
C129        C  0.76977348  0.21276670  0.95006984     0.86100
N130        N  0.75219583  0.23021099  0.50000216    -0.74600
C131        C  0.76988576  0.21279438  0.54994328     0.86200
N132        N  0.80526957  0.17797985  0.54993327    -0.76300
C133        C  0.32637663  0.66397685  0.75000586     0.83700
N134        N  0.30895894  0.68164901  0.79993087    -0.74600
C135        C  0.27411402  0.71700650  0.79995223     0.86100
N136        N  0.25667211  0.73467929  0.75001300    -0.74600
C137        C  0.27409387  0.71700355  0.70007397     0.86200
N138        N  0.30893624  0.68164982  0.70008963    -0.76300
C139        C  0.16848282  0.82184884  0.99998341     0.84300
N140        N  0.18611088  0.80429918  0.54990639    -0.74600
C141        C  0.22149384  0.76948609  0.54993239     0.86100
N142        N  0.23921577  0.75217116  0.99999780    -0.74600
C143        C  0.22153605  0.76959525  0.95005431     0.86200
N144        N  0.18616495  0.80442585  0.95006526    -0.76300
O145        O  0.94555199  0.04022514  0.95256499    -0.71000
O146        O  0.04570205  0.94218578  0.95254383    -0.71000
O147        O  0.94662837  0.94111421  0.95255434    -0.71100
O148        O  0.04462140  0.04130116  0.95255393    -0.71100
O149        O  0.04471716  0.04120803  0.54744617    -0.71000
O150        O  0.94670144  0.94103674  0.54744642    -0.71000
O151        O  0.04576499  0.94209347  0.54743557    -0.71000
O152        O  0.94564487  0.04015961  0.54745715    -0.71100
Ni153      Ni  0.99562436  0.99120819  0.94914257     1.25400
Ni154      Ni  0.99570683  0.99112474  0.55085794     1.25400
C155        C  0.92932119  0.05615722  0.50001489     0.91200
C156        C  0.06207169  0.92611280  0.49998591     0.91100
C157        C  0.93066784  0.92477257  0.00000061     0.91200
C158        C  0.06060628  0.05761890  0.00000010     0.91300
O159        O  0.54467769  0.44103431  0.79745569    -0.71000
O160        O  0.44670781  0.54124197  0.79740464    -0.71000
O161        O  0.44561320  0.44212860  0.79743069    -0.71100
O162        O  0.54578052  0.54014004  0.79743459    -0.71100
O163        O  0.54579381  0.54013248  0.70254228    -0.71000
O164        O  0.44562341  0.44211695  0.70253834    -0.71000
O165        O  0.44671500  0.54123676  0.70251270    -0.71000
O166        O  0.54468554  0.44102948  0.70256239    -0.71100
Ni167      Ni  0.49569293  0.49113803  0.80084263     1.25400
Ni168      Ni  0.49570380  0.49112970  0.69912642     1.25400
C169        C  0.56065148  0.42470233  0.75001459     0.91200
C170        C  0.43073894  0.55757131  0.74995316     0.91100
C171        C  0.42929990  0.42613790  0.74998537     0.91200
C172        C  0.56212330  0.55610314  0.74999035     0.91300
C173        C  0.16505753  0.16393608  0.49999950     0.83700
N174        N  0.18248258  0.18161183  0.54991928    -0.74600
C175        C  0.21731822  0.21697439  0.54993737     0.86100
N176        N  0.23474711  0.23465338  0.49999938    -0.74600
C177        C  0.21725226  0.21702505  0.95006148     0.86200
N178        N  0.18241476  0.18166479  0.95007955    -0.76300
C179        C  0.32294734  0.32173181  0.75000437     0.83700
N180        N  0.30527224  0.30430803  0.70008430    -0.74600
C181        C  0.26989355  0.26948988  0.70006470     0.86100
N182        N  0.25219494  0.25207992  0.75000180    -0.74600
C183        C  0.26987256  0.26950810  0.79994061     0.86200
N184        N  0.30525188  0.30432656  0.79992410    -0.76300
C185        C  0.23572145  0.23561051  0.89722348    -0.09800
C186        C  0.25124063  0.25108365  0.85277774    -0.11400
C187        C  0.25128314  0.25104925  0.64722492    -0.09800
C188        C  0.23577922  0.23556714  0.60277622    -0.11400
C189        C  0.39183588  0.38941296  0.74999034    -0.09800
C190        C  0.36037459  0.35852404  0.75000191    -0.11400
C191        C  0.12819427  0.12656751  0.99999969    -0.09800
C192        C  0.09731418  0.09509820  0.99999998    -0.11400
C193        C  0.09952975  0.88938367  0.49997837    -0.09800
C194        C  0.13099218  0.85849714  0.49997703    -0.11400
C195        C  0.36317144  0.62654800  0.74998637    -0.09800
C196        C  0.39404309  0.59506743  0.74995021    -0.11400
C197        C  0.24011380  0.75105806  0.60277736    -0.09800
C198        C  0.25562098  0.73558936  0.64723397    -0.11400
C199        C  0.25565909  0.73561367  0.85279129    -0.09800
C200        C  0.24014596  0.75113136  0.89722061    -0.11400
C201        C  0.89185917  0.09289007  0.50002228    -0.09800
C202        C  0.86039374  0.12377801  0.50002326    -0.11400
C203        C  0.62821029  0.35573609  0.74999032    -0.09800
C204        C  0.59734143  0.38721225  0.75001887    -0.11400
C205        C  0.75126244  0.23123038  0.60277499    -0.09800
C206        C  0.73574452  0.24671403  0.64721283    -0.11400
C207        C  0.73570917  0.24669073  0.85276271    -0.09800
C208        C  0.75118181  0.23121307  0.89722708    -0.11400
C209        C  0.89399647  0.88725741  0.00000071    -0.09800
C210        C  0.86315903  0.85574625  0.00000050    -0.11400
C211        C  0.63113576  0.62362852  0.75000719    -0.09800
C212        C  0.59963725  0.59277740  0.74999708    -0.11400
C213        C  0.75568608  0.74664976  0.89722435    -0.09800
C214        C  0.74018821  0.73115490  0.85277878    -0.11400
C215        C  0.75562131  0.74669573  0.60277741    -0.09800
C216        C  0.74013395  0.73119625  0.64722587    -0.11400
loop_ 
_geom_bond_atom_site_label_1 
_geom_bond_atom_site_label_2 
_geom_bond_distance 
_geom_bond_site_symmetry_2 
_ccdc_geom_bond_type 
C1            N2   1.357       .  A
C1            N6   1.357       .  A
C1          C103   1.435       .  S
N2            C3   1.357       .  A
C3            N4   1.357       .  A
C3          C108   1.435       .  S
N4            C5   1.357       .  A
C5            N6   1.357       .  A
C5          C106   1.435       .  S
C7            N8   1.357       .  A
C7          N120   1.357       .  A
C7          C102   1.435       .  S
N8            C9   1.357       .  A
C9           N10   1.357       .  A
C9          C105   1.435       .  S
N10         C119   1.357       .  A
C11          N12   1.357       .  A
C11         N118   1.357       .  A
C11         C107   1.435       .  S
N12         C115   1.357       .  A
C13          N14   1.357       .  A
C13          N18   1.357       .  A
C13          C95   1.435       .  S
N14          C15   1.357       .  A
C15          N16   1.357       .  A
C15          C98   1.435       .  S
N16          C17   1.357       .  A
C17          N18   1.357       .  A
C17          C99   1.435       .  S
C19          N24   1.357       .  A
C19         N128   1.357   1_554  A
C19          C94   1.435       .  S
N20          C21   1.357       .  A
N20         C127   1.357       .  A
C21         N130   1.357       .  A
C21         C100   1.435       .  S
N22          C23   1.357       .  A
N22         C129   1.357   1_554  A
C23          N24   1.357       .  A
C23          C97   1.435       .  S
C25          N26   1.357       .  A
C25          N30   1.357       .  A
C25          C87   1.435       .  S
N26          C27   1.357       .  A
C27          N28   1.357       .  A
C27          C91   1.435       .  S
N28          C29   1.357       .  A
C29          N30   1.357       .  A
C29          C90   1.435       .  S
C31          N36   1.357       .  A
C31         N140   1.357       .  A
C31         C194   1.435       .  S
N32          C33   1.357       .  A
N32         C139   1.357   1_554  A
C33         N142   1.357   1_554  A
C33          C89   1.435       .  S
N34          C35   1.357       .  A
N34         C141   1.357       .  A
C35          N36   1.357       .  A
C35          C92   1.435       .  S
O37         Ni45   1.917   1_545  S
O37         C155   1.280       .  A
O38         Ni45   1.917   1_455  S
O38         C156   1.280       .  A
O39         Ni45   1.917       .  S
O39          C49   1.280       .  A
O40         Ni45   1.917   1_445  S
O40          C50   1.280       .  A
O41         Ni46   1.917   1_445  S
O41         C158   1.280       .  A
O42         Ni46   1.917       .  S
O42         C157   1.280       .  A
O43         Ni46   1.917   1_455  S
O43          C48   1.280   1_554  A
O44         Ni46   1.917   1_545  S
O44          C47   1.280       .  A
Ni45       Ni154   2.394       .  S
Ni46       Ni153   2.394   1_554  S
C47          C93   1.434       .  S
C47         O145   1.280   1_554  A
C48          C85   1.434       .  S
C48         O146   1.280       .  A
C49         C101   1.434       .  S
C49         O150   1.280       .  A
C50          C84   1.434       .  S
C50         O149   1.280       .  A
O51         Ni59   1.917       .  S
O51          C61   1.280       .  A
O52         Ni59   1.917       .  S
O52          C62   1.280       .  A
O53         Ni59   1.917       .  S
O53          C63   1.280       .  A
O54         Ni59   1.917       .  S
O54          C64   1.280       .  A
O55         Ni60   1.917       .  S
O55          C64   1.280       .  A
O56         Ni60   1.917       .  S
O56          C63   1.280       .  A
O57         Ni60   1.917       .  S
O57          C62   1.280       .  A
O58         Ni60   1.917       .  S
O58          C61   1.280       .  A
Ni59        Ni60   2.394       .  S
C61          C96   1.434       .  S
C62          C88   1.434       .  S
C63          C81   1.434       .  S
C64         C104   1.434       .  S
C65          N66   1.357   1_556  A
C65         N178   1.357       .  A
C65         C191   1.435       .  S
N66          C67   1.357       .  A
C67          N68   1.357   1_554  A
C67          C80   1.435       .  S
N68         C177   1.357       .  A
C69          N70   1.357       .  A
C69         N176   1.357       .  A
C69          C77   1.435       .  S
N70         C173   1.357       .  A
C71          N72   1.357       .  A
C71          N76   1.357       .  A
C71          C82   1.435       .  S
N72          C73   1.357       .  A
C73          N74   1.357       .  A
C73          C79   1.435       .  S
N74          C75   1.357       .  A
C75          N76   1.357       .  A
C75          C78   1.435       .  S
C77          C78   1.206       .  T
C79          C80   1.206       .  T
C81          C82   1.205       .  T
C83         C173   1.435       .  S
C83          C84   1.205       .  T
C85          C86   1.205       .  T
C86         C139   1.435       .  S
C87          C88   1.205       .  T
C89          C90   1.206       .  T
C91          C92   1.206       .  T
C93          C94   1.205       .  T
C95          C96   1.205       .  T
C97          C98   1.206       .  T
C99         C100   1.206       .  T
C101        C102   1.205       .  T
C103        C104   1.205       .  T
C105        C106   1.206       .  T
C107        C108   1.206       .  T
C109        N110   1.357       .  A
C109        N114   1.357       .  A
C109        C211   1.435       .  S
N110        C111   1.357       .  A
C111        N112   1.357       .  A
C111        C216   1.435       .  S
N112        C113   1.357       .  A
C113        N114   1.357       .  A
C113        C214   1.435       .  S
C115        N116   1.357   1_554  A
C115        C210   1.435       .  S
N116        C117   1.357       .  A
C117        N118   1.357   1_556  A
C117        C213   1.435       .  S
C119        N120   1.357       .  A
C119        C215   1.435       .  S
C121        N122   1.357       .  A
C121        N126   1.357       .  A
C121        C203   1.435       .  S
N122        C123   1.357       .  A
C123        N124   1.357       .  A
C123        C206   1.435       .  S
N124        C125   1.357       .  A
C125        N126   1.357       .  A
C125        C207   1.435       .  S
C127        N132   1.357       .  A
C127        C202   1.435       .  S
N128        C129   1.357       .  A
C129        C208   1.435       .  S
N130        C131   1.357       .  A
C131        N132   1.357       .  A
C131        C205   1.435       .  S
C133        N134   1.357       .  A
C133        N138   1.357       .  A
C133        C195   1.435       .  S
N134        C135   1.357       .  A
C135        N136   1.357       .  A
C135        C199   1.435       .  S
N136        C137   1.357       .  A
C137        N138   1.357       .  A
C137        C198   1.435       .  S
C139        N144   1.357       .  A
N140        C141   1.357       .  A
C141        C197   1.435       .  S
N142        C143   1.357       .  A
C143        N144   1.357       .  A
C143        C200   1.435       .  S
O145       Ni153   1.917   1_545  S
O146       Ni153   1.917   1_455  S
O147       Ni153   1.917       .  S
O147        C157   1.280   1_556  A
O148       Ni153   1.917   1_445  S
O148        C158   1.280   1_556  A
O149       Ni154   1.917   1_445  S
O150       Ni154   1.917       .  S
O151       Ni154   1.917   1_455  S
O151        C156   1.280       .  A
O152       Ni154   1.917   1_545  S
O152        C155   1.280       .  A
C155        C201   1.434       .  S
C156        C193   1.434       .  S
C157        C209   1.434       .  S
C158        C192   1.434   1_554  S
O159       Ni167   1.917       .  S
O159        C169   1.280       .  A
O160       Ni167   1.917       .  S
O160        C170   1.280       .  A
O161       Ni167   1.917       .  S
O161        C171   1.280       .  A
O162       Ni167   1.917       .  S
O162        C172   1.280       .  A
O163       Ni168   1.917       .  S
O163        C172   1.280       .  A
O164       Ni168   1.917       .  S
O164        C171   1.280       .  A
O165       Ni168   1.917       .  S
O165        C170   1.280       .  A
O166       Ni168   1.917       .  S
O166        C169   1.280       .  A
Ni167      Ni168   2.394       .  S
C169        C204   1.434       .  S
C170        C196   1.434       .  S
C171        C189   1.434       .  S
C172        C212   1.434       .  S
C173        N174   1.357       .  A
N174        C175   1.357       .  A
C175        N176   1.357       .  A
C175        C188   1.435       .  S
C177        N178   1.357       .  A
C177        C185   1.435       .  S
C179        N180   1.357       .  A
C179        N184   1.357       .  A
C179        C190   1.435       .  S
N180        C181   1.357       .  A
C181        N182   1.357       .  A
C181        C187   1.435       .  S
N182        C183   1.357       .  A
C183        N184   1.357       .  A
C183        C186   1.435       .  S
C185        C186   1.206       .  T
C187        C188   1.206       .  T
C189        C190   1.205       .  T
C191        C192   1.205       .  T
C193        C194   1.205       .  T
C195        C196   1.205       .  T
C197        C198   1.206       .  T
C199        C200   1.206       .  T
C201        C202   1.205       .  T
C203        C204   1.205       .  T
C205        C206   1.206       .  T
C207        C208   1.206       .  T
C209        C210   1.205       .  T
C211        C212   1.205       .  T
C213        C214   1.206       .  T
C215        C216   1.206       .  T
