geometry optimzed in LAMMPS
_audit_creation_date              2020-11-30 
_audit_creation_method            'lammps2cif' 
_symmetry_space_group_name_H-M    'P1' 
_symmetry_Int_Tables_number       1 
_symmetry_cell_setting            triclinic 
loop_ 
_symmetry_equiv_pos_as_xyz 
  x,y,z 
_cell_length_a                    51.98219348 
_cell_length_b                    51.64495241242482 
_cell_length_c                    23.594797214337312 
_cell_angle_alpha                 89.81632974579558 
_cell_angle_beta                  89.84536932807173 
_cell_angle_gamma                 90.0095834089027 
loop_ 
_atom_site_label 
_atom_site_type_symbol 
_atom_site_fract_x 
_atom_site_fract_y 
_atom_site_fract_z 
_atom_site_charge 
C1          C  0.67828666  0.68041929  0.50270720     0.82000
N2          N  0.68777105  0.69003305  0.45329784    -0.76300
C3          C  0.70628689  0.70855292  0.45408936     0.84500
N4          N  0.71530512  0.71746706  0.50427533    -0.76200
C5          C  0.70583704  0.70786407  0.55368868     0.84600
N6          N  0.68731434  0.68934265  0.55292079    -0.77900
C7          C  0.80996683  0.81157783  0.00175429     0.82000
N8          N  0.80067366  0.80253005  0.05183618    -0.76300
C9          C  0.78205969  0.78410852  0.05240780     0.84500
N10         N  0.77272629  0.77474224  0.00288465    -0.76200
C11         C  0.78201464  0.78378464  0.95279057     0.84600
N12         N  0.80062923  0.80221330  0.95222397    -0.77900
C13         C  0.67757546  0.31191945  0.50296836     0.82000
N14         N  0.68674491  0.30239360  0.55264690    -0.76300
C15         C  0.70523672  0.28384222  0.55237192     0.84500
N16         N  0.71455651  0.27482645  0.50241583    -0.76200
C17         C  0.70540292  0.28434546  0.45273703     0.84600
N18         N  0.68690785  0.30289130  0.45301574    -0.77900
C19         C  0.80952606  0.18074853  0.00304457     0.82000
N20         N  0.80033427  0.19022739  0.05271949    -0.76300
C21         C  0.78174777  0.20868283  0.05244507     0.84500
N22         N  0.77235035  0.21764203  0.00248830    -0.76200
C23         C  0.78152987  0.20816285  0.95281497     0.84600
N24         N  0.80011753  0.18971623  0.95310310    -0.77900
C25         C  0.31002143  0.68147258  0.50307721     0.82000
N26         N  0.30080595  0.69083383  0.55282247    -0.75100
C27         C  0.28250832  0.70956974  0.55270190     0.84500
N28         N  0.27343594  0.71895453  0.50283708    -0.76200
C29         C  0.28264783  0.70959953  0.45308976     0.84600
N30         N  0.30094666  0.69086148  0.45320456    -0.77900
C31         C  0.17867160  0.81284834  0.00285238     0.82000
N32         N  0.18794626  0.80358499  0.05266500    -0.76300
C33         C  0.20651367  0.78511304  0.05264204     0.84500
N34         N  0.21580655  0.77591910  0.00283437    -0.76200
C35         C  0.20653756  0.78517357  0.95304053     0.84600
N36         N  0.18797438  0.80364408  0.95304024    -0.77900
O37         O  0.96747621  0.97002970  0.04929071    -0.72600
O38         O  0.01969578  0.02242804  0.05018309    -0.72600
O39         O  0.96753798  0.02246235  0.04985206    -0.72700
O40         O  0.01961619  0.96996240  0.04965162    -0.72700
O41         O  0.01985096  0.97029924  0.95498319    -0.72700
O42         O  0.96778884  0.02280390  0.95518325    -0.72700
O43         O  0.01992961  0.02274687  0.95551798    -0.72600
O44         O  0.96771820  0.97037807  0.95462131    -0.72700
Ni45       Ni  0.99357541  0.99620844  0.05315301     1.25400
Ni46       Ni  0.99383368  0.99657000  0.95168090     1.25400
C47         C  0.95905936  0.96169439  0.00180663     0.89600
C48         C  0.02833946  0.03111780  0.00297374     0.89500
C49         C  0.95914087  0.03115652  0.00254495     0.89500
C50         C  0.02823546  0.96158568  0.00228179     0.89700
O51         O  0.46762728  0.52284018  0.55185927    -0.72600
O52         O  0.51973576  0.47038109  0.55181932    -0.72600
O53         O  0.51971797  0.52288205  0.55110194    -0.72700
O54         O  0.46761924  0.47035063  0.55245249    -0.72700
O55         O  0.46750216  0.47028425  0.45778260    -0.72700
O56         O  0.51956197  0.52275255  0.45643399    -0.72700
O57         O  0.51959598  0.47027073  0.45715387    -0.72600
O58         O  0.46748841  0.52275264  0.45719104    -0.72700
Ni59       Ni  0.49368134  0.49661377  0.55521978     1.25400
Ni60       Ni  0.49353266  0.49650703  0.45374635     1.25400
C61         C  0.45910032  0.53138478  0.50454142     0.89600
C62         C  0.52814474  0.46175417  0.50448723     0.89500
C63         C  0.52808837  0.53141583  0.50352003     0.89500
C64         C  0.45908182  0.46175094  0.50529550     0.89700
C65         C  0.17715325  0.18167839  0.00262731     0.82000
N66         N  0.18650655  0.19075565  0.05241444    -0.76300
C67         C  0.20491061  0.20940264  0.05234457     0.84500
N68         N  0.21396854  0.21895166  0.00251147    -0.76200
C69         C  0.20462586  0.20988993  0.95273970     0.84600
N70         N  0.18622497  0.19124342  0.95278977    -0.77900
C71         C  0.30915355  0.31256417  0.50091063     0.82000
N72         N  0.29993533  0.30315434  0.45131941    -0.76300
C73         C  0.28132716  0.28472214  0.45175431     0.84500
N74         N  0.27194307  0.27570067  0.50177891    -0.76200
C75         C  0.28115798  0.28511165  0.55136985     0.84600
N76         N  0.29976640  0.30354009  0.55093117    -0.77900
C77         C  0.23300412  0.23816922  0.80353570     0.18800
C78         C  0.24082870  0.26407730  0.79948397    -0.10300
C79         C  0.25072977  0.27369695  0.74840523    -0.11100
C80         C  0.25284898  0.25744467  0.70118287     0.20400
C81         C  0.24506193  0.23152987  0.70527135    -0.13200
C82         C  0.23516303  0.22191235  0.75633835    -0.11400
C83         C  0.26292244  0.26734386  0.64853390     0.01400
C84         C  0.27127468  0.27551777  0.60424866    -0.31500
C85         C  0.22280673  0.22825726  0.85605833     0.02700
C86         C  0.21438205  0.21988530  0.90010074    -0.33100
H87         H  0.23926216  0.27681123  0.83573158     0.13800
H88         H  0.25669812  0.29376575  0.74571302     0.13600
H89         H  0.24662050  0.21879394  0.66902277     0.13500
H90         H  0.22918885  0.20184423  0.75901665     0.12500
C91         C  0.25338626  0.25634134  0.30298297     0.18800
C92         C  0.25775402  0.26969048  0.25206626    -0.10300
C93         C  0.24791603  0.26004051  0.20121399    -0.11100
C94         C  0.23366940  0.23700374  0.20107594     0.20400
C95         C  0.22935185  0.22362802  0.25197467    -0.13200
C96         C  0.23918899  0.23327710  0.30282279    -0.11400
C97         C  0.22343636  0.22714357  0.14880034     0.01400
C98         C  0.21489540  0.21897129  0.10490302    -0.31500
C99         C  0.26335190  0.26635244  0.35536746     0.02700
C100        C  0.27159325  0.27474707  0.39933802    -0.33100
H101        H  0.26870441  0.28754220  0.25170924     0.13800
H102        H  0.25137439  0.27053565  0.16209561     0.13600
H103        H  0.21836801  0.20579603  0.25234763     0.13500
H104        H  0.23569727  0.22280175  0.34195318     0.12500
C105        C  0.36521029  0.36783049  0.50131464     0.18800
C106        C  0.39001115  0.36161596  0.52008392    -0.10300
C107        C  0.40914675  0.38064916  0.52130928    -0.11100
C108        C  0.40355165  0.40597198  0.50378057     0.20400
C109        C  0.37876807  0.41216752  0.48488731    -0.13200
C110        C  0.35963575  0.39313728  0.48366051    -0.11400
C111        C  0.42321136  0.42557720  0.50504109     0.01400
C112        C  0.43961024  0.44207774  0.50558079    -0.31500
C113        C  0.34545380  0.34831787  0.50060296     0.02700
C114        C  0.32887377  0.33199951  0.50050140    -0.33100
H115        H  0.39452442  0.34210740  0.53384772     0.13800
H116        H  0.42825361  0.37564404  0.53594334     0.13600
H117        H  0.37424349  0.43168275  0.47118838     0.13500
H118        H  0.34052129  0.39815323  0.46908938     0.12500
C119        C  0.08394105  0.08691667  0.00270646     0.18800
C120        C  0.07763547  0.11243892  0.98796708    -0.10300
C121        C  0.09661068  0.13165075  0.98784799    -0.11100
C122        C  0.12198324  0.12543264  0.00246398     0.20400
C123        C  0.12830644  0.09989681  0.01707918    -0.13200
C124        C  0.10932751  0.08068120  0.01719672    -0.11400
C125        C  0.14147686  0.14524583  0.00257336     0.01400
C126        C  0.15775887  0.16188355  0.00265570    -0.31500
C127        C  0.06437175  0.06717807  0.00304321     0.02700
C128        C  0.04792670  0.05070279  0.00319351    -0.33100
H129        H  0.05807411  0.11747946  0.97666538     0.13800
H130        H  0.09150402  0.15132584  0.97645714     0.13600
H131        H  0.14786293  0.09486503  0.02843323     0.13500
H132        H  0.11442540  0.06100988  0.02863859     0.12500
C133        C  0.12276880  0.86828796  0.00254666     0.18800
C134        C  0.10026532  0.86458940  0.03437657    -0.10300
C135        C  0.08099658  0.88348886  0.03419682    -0.11100
C136        C  0.08414779  0.90617065  0.00218465     0.20400
C137        C  0.10665143  0.90987283  0.97034253    -0.13200
C138        C  0.12592313  0.89096956  0.97052062    -0.11400
C139        C  0.06434410  0.92564471  0.00213109     0.01400
C140        C  0.04780798  0.94201018  0.00219222    -0.31500
C141        C  0.14256256  0.84880432  0.00269561     0.02700
C142        C  0.15906745  0.83240731  0.00282596    -0.33100
H143        H  0.09762460  0.84712215  0.05927863     0.13800
H144        H  0.06367920  0.88043080  0.05898219     0.13600
H145        H  0.10929073  0.92734263  0.94545173     0.13500
H146        H  0.14324379  0.89402669  0.94574176     0.12500
C147        C  0.36564204  0.62576018  0.50402752     0.18800
C148        C  0.38910518  0.63014003  0.47622803    -0.10300
C149        C  0.40818818  0.61104513  0.47654934    -0.11100
C150        C  0.40388220  0.58749422  0.50467001     0.20400
C151        C  0.38044666  0.58314754  0.53259087    -0.13200
C152        C  0.36136756  0.60223886  0.53227129    -0.11400
C153        C  0.42342234  0.56775492  0.50466166     0.01400
C154        C  0.43971193  0.55114239  0.50459240    -0.31500
C155        C  0.34596600  0.64535894  0.50354072     0.02700
C156        C  0.32950610  0.66179843  0.50323648    -0.33100
H157        H  0.39261826  0.64826520  0.45428733     0.13800
H158        H  0.42624135  0.61461199  0.45483231     0.13600
H159        H  0.37691734  0.56501008  0.55447365     0.13500
H160        H  0.34330356  0.59865659  0.55393074     0.12500
C161        C  0.25491079  0.73809094  0.30386737     0.18800
C162        C  0.26859981  0.73459986  0.25322576    -0.10300
C163        C  0.25874876  0.74422698  0.20223012    -0.11100
C164        C  0.23517475  0.75738210  0.20169038     0.20400
C165        C  0.22152418  0.76092360  0.25235072    -0.13200
C166        C  0.23137227  0.75129958  0.30333119    -0.11400
C167        C  0.22497140  0.76719476  0.14922363     0.01400
C168        C  0.21645164  0.77539658  0.10522977    -0.31500
C169        C  0.26491137  0.72802715  0.35629987     0.02700
C170        C  0.27308381  0.71958390  0.40039947    -0.33100
H171        H  0.28681930  0.72441534  0.25316447     0.13800
H172        H  0.26946509  0.74138783  0.16329264     0.13600
H173        H  0.20328402  0.77107185  0.25241022     0.13500
H174        H  0.22063191  0.75410599  0.34224923     0.12500
C175        C  0.23511770  0.75739109  0.80403253     0.18800
C176        C  0.24569367  0.73245643  0.80208925    -0.10300
C177        C  0.25549301  0.72278241  0.75112087    -0.11100
C178        C  0.25475564  0.73800510  0.70189311     0.20400
C179        C  0.24423961  0.76296665  0.70386821    -0.13200
C180        C  0.23443946  0.77264147  0.75484051    -0.11400
C181        C  0.26464936  0.72796986  0.64935978     0.01400
C182        C  0.27283090  0.71954198  0.60527593    -0.31500
C183        C  0.22493848  0.76728750  0.85642292     0.02700
C184        C  0.21646165  0.77549591  0.90043249    -0.33100
H185        H  0.24632316  0.72050758  0.83988882     0.13800
H186        H  0.26358154  0.70345680  0.75006256     0.13600
H187        H  0.24357450  0.77490023  0.66604629     0.13500
H188        H  0.22631436  0.79195208  0.75588526     0.12500
C189        C  0.90342509  0.08677011  0.00266482     0.18800
C190        C  0.87740880  0.07975877  0.00030237    -0.10300
C191        C  0.85834764  0.09887651  0.00048222    -0.11100
C192        C  0.86522241  0.12508366  0.00302834     0.20400
C193        C  0.89123942  0.13209138  0.00533920    -0.13200
C194        C  0.91029843  0.11297554  0.00515899    -0.11400
C195        C  0.84560720  0.14475409  0.00324321     0.01400
C196        C  0.82915209  0.16120523  0.00328760    -0.31500
C197        C  0.92305120  0.06711500  0.00260563     0.02700
C198        C  0.93953874  0.05070044  0.00259517    -0.33100
H199        H  0.87187735  0.05955418  0.99834828     0.13800
H200        H  0.83829066  0.09324054  0.99865366     0.13600
H201        H  0.89677409  0.15229562  0.00728958     0.13500
H202        H  0.93035600  0.11861216  0.00698348     0.12500
C203        C  0.62184502  0.36757052  0.50371479     0.18800
C204        C  0.59582421  0.36051853  0.50575263    -0.10300
C205        C  0.57674120  0.37961882  0.50603586    -0.11100
C206        C  0.58359855  0.40585250  0.50427421     0.20400
C207        C  0.60961644  0.41289985  0.50224599    -0.13200
C208        C  0.62869583  0.39380339  0.50196248    -0.11400
C209        C  0.56397978  0.42552359  0.50445156     0.01400
C210        C  0.54760716  0.44205967  0.50449223    -0.31500
C211        C  0.64149469  0.34792708  0.50345480     0.02700
C212        C  0.65797387  0.33149576  0.50324917    -0.33100
H213        H  0.59030597  0.34029407  0.50711424     0.13800
H214        H  0.55668362  0.37394892  0.50759944     0.13600
H215        H  0.61513681  0.43312353  0.50086110     0.13500
H216        H  0.64875214  0.39947799  0.50037498     0.12500
C217        C  0.73382570  0.25658637  0.30343014     0.18800
C218        C  0.74624205  0.23250909  0.30249525    -0.10300
C219        C  0.75608716  0.22279979  0.25158317    -0.11100
C220        C  0.75356379  0.23712501  0.20136969     0.20400
C221        C  0.74116038  0.26121091  0.20230725    -0.13200
C222        C  0.73131418  0.27092133  0.25322510    -0.11400
C223        C  0.76362829  0.22709372  0.14893886     0.01400
C224        C  0.77196588  0.21867897  0.10495403    -0.31500
C225        C  0.72368583  0.26654999  0.35584812     0.02700
C226        C  0.71527602  0.27475954  0.39994982    -0.33100
H227        H  0.74829575  0.22126091  0.34106104     0.13800
H228        H  0.76563354  0.20415326  0.25135592     0.13600
H229        H  0.73909313  0.27245023  0.16373274     0.13500
H230        H  0.72175286  0.28956033  0.25345198     0.12500
C231        C  0.75295492  0.23568509  0.80339949     0.18800
C232        C  0.74268173  0.26074751  0.80115270    -0.10300
C233        C  0.73286195  0.27046982  0.75022007    -0.11100
C234        C  0.73326584  0.25517507  0.70128724     0.20400
C235        C  0.74351406  0.23009536  0.70353116    -0.13200
C236        C  0.75333757  0.22036928  0.75448281    -0.11400
C237        C  0.72325442  0.26524977  0.64882950     0.01400
C238        C  0.71496125  0.27375480  0.60486975    -0.31500
C239        C  0.76310974  0.22574939  0.85584399     0.02700
C240        C  0.77156038  0.21764063  0.90000934    -0.33100
H241        H  0.74228846  0.27275858  0.83871209     0.13800
H242        H  0.72499332  0.28988824  0.74897307     0.13600
H243        H  0.74393251  0.21810096  0.66594871     0.13500
H244        H  0.76123521  0.20096391  0.75572996     0.12500
C245        C  0.90340706  0.90600963  0.00122555     0.18800
C246        C  0.90754203  0.88259947  0.02995441    -0.10300
C247        C  0.88857776  0.86338799  0.02988118    -0.11100
C248        C  0.86539566  0.86750225  0.00107177     0.20400
C249        C  0.86124346  0.89092413  0.97238007    -0.13200
C250        C  0.88021261  0.91014118  0.97245522    -0.11400
C251        C  0.84588989  0.84772499  0.00103047     0.01400
C252        C  0.82952981  0.83117899  0.00121071    -0.31500
C253        C  0.92296512  0.92573549  0.00126406     0.02700
C254        C  0.93943649  0.94216913  0.00146239    -0.33100
H255        H  0.92540177  0.87920779  0.05235041     0.13800
H256        H  0.89198227  0.84535651  0.05223272     0.13600
H257        H  0.84338079  0.89431337  0.94999626     0.13500
H258        H  0.87681089  0.92817557  0.95011854     0.12500
C259        C  0.58364530  0.58719245  0.50141090     0.18800
C260        C  0.57753020  0.61293636  0.48819529    -0.10300
C261        C  0.59678217  0.63187369  0.48793458    -0.11100
C262        C  0.62221750  0.62513682  0.50087951     0.20400
C263        C  0.62833132  0.59938055  0.51389582    -0.13200
C264        C  0.60909011  0.58045372  0.51415492    -0.11400
C265        C  0.64200254  0.64463607  0.50120800     0.01400
C266        C  0.65859554  0.66094551  0.50183834    -0.31500
C267        C  0.56386438  0.56769346  0.50212788     0.02700
C268        C  0.54748279  0.55117034  0.50288166    -0.33100
H269        H  0.55791782  0.61835883  0.47825174     0.13800
H270        H  0.59184061  0.65173425  0.47780985     0.13600
H271        H  0.64793069  0.59395700  0.52396998     0.13500
H272        H  0.61403008  0.56060580  0.52440709     0.12500
C273        C  0.73365969  0.73580906  0.70296593     0.18800
C274        C  0.73090340  0.76214448  0.71574236    -0.10300
C275        C  0.74078470  0.77197169  0.76639354    -0.11100
C276        C  0.75347107  0.75550435  0.80446211     0.20400
C277        C  0.75622900  0.72917347  0.79167395    -0.13200
C278        C  0.74634896  0.71934770  0.74102962    -0.11400
C279        C  0.76361457  0.76558608  0.85662320     0.01400
C280        C  0.77206611  0.77393157  0.90044971    -0.31500
C281        C  0.72360325  0.72572076  0.65073132     0.02700
C282        C  0.71536401  0.71741802  0.60667116    -0.33100
H283        H  0.72114806  0.77505117  0.68658256     0.13800
H284        H  0.73854344  0.79236330  0.77585727     0.13600
H285        H  0.76600333  0.71626904  0.82080741     0.13500
H286        H  0.74861043  0.69896001  0.73154706     0.12500
C287        C  0.75380216  0.75707934  0.20281403     0.18800
C288        C  0.77045433  0.75248028  0.24834593    -0.10300
C289        C  0.76079500  0.74284411  0.29962402    -0.11100
C290        C  0.73444484  0.73776657  0.30557087     0.20400
C291        C  0.71777407  0.74249218  0.26013630    -0.13200
C292        C  0.72743288  0.75212770  0.20886062    -0.11400
C293        C  0.72454811  0.72752172  0.35805602     0.01400
C294        C  0.71622490  0.71883465  0.40189310    -0.31500
C295        C  0.76378561  0.76669010  0.14983297     0.02700
C296        C  0.77214933  0.77463951  0.10536612    -0.33100
H297        H  0.79087478  0.75624960  0.24413145     0.13800
H298        H  0.77385478  0.73926553  0.33449327     0.13600
H299        H  0.69736529  0.73863901  0.26428637     0.13500
H300        H  0.71438521  0.75562189  0.17393003     0.12500
loop_ 
_geom_bond_atom_site_label_1 
_geom_bond_atom_site_label_2 
_geom_bond_distance 
_geom_bond_site_symmetry_2 
_ccdc_geom_bond_type 
C1            N2   1.357       .  A
C1            N6   1.357       .  A
C1          C266   1.435       .  S
N2            C3   1.357       .  A
C3            N4   1.357       .  A
C3          C294   1.435       .  S
N4            C5   1.357       .  A
C5            N6   1.357       .  A
C5          C282   1.435       .  S
C7            N8   1.357       .  A
C7           N12   1.357   1_554  A
C7          C252   1.435       .  S
N8            C9   1.357       .  A
C9           N10   1.357       .  A
C9          C296   1.435       .  S
N10          C11   1.357   1_554  A
C11          N12   1.357       .  A
C11         C280   1.435       .  S
C13          N14   1.357       .  A
C13          N18   1.357       .  A
C13         C212   1.436       .  S
N14          C15   1.357       .  A
C15          N16   1.357       .  A
C15         C238   1.435       .  S
N16          C17   1.357       .  A
C17          N18   1.357       .  A
C17         C226   1.435       .  S
C19          N20   1.357       .  A
C19          N24   1.357   1_554  A
C19         C196   1.435       .  S
N20          C21   1.357       .  A
C21          N22   1.357       .  A
C21         C224   1.436       .  S
N22          C23   1.357   1_554  A
C23          N24   1.357       .  A
C23         C240   1.435       .  S
C25          N26   1.357       .  A
C25          N30   1.357       .  A
C25         C156   1.435       .  S
N26          C27   1.357       .  A
C27          N28   1.357       .  A
C27         C182   1.435       .  S
N28          C29   1.357       .  A
C29          N30   1.357       .  A
C29         C170   1.435       .  S
C31          N32   1.357       .  A
C31          N36   1.357   1_554  A
C31         C142   1.435       .  S
N32          C33   1.357       .  A
C33          N34   1.357       .  A
C33         C168   1.435       .  S
N34          C35   1.357   1_554  A
C35          N36   1.357       .  A
C35         C184   1.434       .  S
O37         Ni45   1.918       .  S
O37          C47   1.280       .  A
O38         Ni45   1.918   1_445  S
O38          C48   1.280       .  A
O39         Ni45   1.918   1_545  S
O39          C49   1.280       .  A
O40         Ni45   1.918   1_455  S
O40          C50   1.280       .  A
O41         Ni46   1.917   1_455  S
O41          C50   1.280   1_556  A
O42         Ni46   1.917   1_545  S
O42          C49   1.280   1_556  A
O43         Ni46   1.918   1_445  S
O43          C48   1.280   1_556  A
O44         Ni46   1.917       .  S
O44          C47   1.280   1_556  A
Ni45        Ni46   2.394   1_554  S
C47         C254   1.434       .  S
C48         C128   1.435       .  S
C49         C198   1.434       .  S
C50         C140   1.434       .  S
O51         Ni59   1.917       .  S
O51          C61   1.280       .  A
O52         Ni59   1.918       .  S
O52          C62   1.280       .  A
O53         Ni59   1.918       .  S
O53          C63   1.280       .  A
O54         Ni59   1.918       .  S
O54          C64   1.280       .  A
O55         Ni60   1.916       .  S
O55          C64   1.279       .  A
O56         Ni60   1.916       .  S
O56          C63   1.279       .  A
O57         Ni60   1.918       .  S
O57          C62   1.280       .  A
O58         Ni60   1.918       .  S
O58          C61   1.280       .  A
Ni59        Ni60   2.394       .  S
C61         C154   1.434       .  S
C62         C210   1.435       .  S
C63         C268   1.434       .  S
C64         C112   1.434       .  S
C65          N66   1.357       .  A
C65          N70   1.357   1_554  A
C65         C126   1.436       .  S
N66          C67   1.357       .  A
C67          N68   1.357       .  A
C67          C98   1.435       .  S
N68          C69   1.357   1_554  A
C69          N70   1.357       .  A
C69          C86   1.435       .  S
C71          N72   1.357       .  A
C71          N76   1.357       .  A
C71         C114   1.435       .  S
N72          C73   1.357       .  A
C73          N74   1.357       .  A
C73         C100   1.435       .  S
N74          C75   1.357       .  A
C75          N76   1.357       .  A
C75          C84   1.435       .  S
C77          C85   1.439       .  S
C77          C78   1.401       .  A
C77          C82   1.401       .  A
C78          C79   1.399       .  A
C78          H87   1.083       .  S
C79          C80   1.401       .  A
C79          H88   1.083       .  S
C80          C83   1.439       .  S
C80          C81   1.401       .  A
C81          C82   1.399       .  A
C81          H89   1.083       .  S
C82          H90   1.083       .  S
C83          C84   1.205       .  T
C85          C86   1.205       .  T
C91          C99   1.439       .  S
C91          C92   1.401       .  A
C91          C96   1.401       .  A
C92          C93   1.399       .  A
C92         H101   1.083       .  S
C93          C94   1.401       .  A
C93         H102   1.083       .  S
C94          C97   1.439       .  S
C94          C95   1.401       .  A
C95          C96   1.399       .  A
C95         H103   1.083       .  S
C96         H104   1.083       .  S
C97          C98   1.206       .  T
C99         C100   1.205       .  T
C105        C113   1.439       .  S
C105        C106   1.401       .  A
C105        C110   1.401       .  A
C106        C107   1.399       .  A
C106        H115   1.084       .  S
C107        C108   1.401       .  A
C107        H116   1.083       .  S
C108        C111   1.439       .  S
C108        C109   1.401       .  A
C109        C110   1.399       .  A
C109        H117   1.084       .  S
C110        H118   1.083       .  S
C111        C112   1.205       .  T
C113        C114   1.205       .  T
C119        C127   1.440       .  S
C119        C120   1.401   1_554  A
C119        C124   1.401       .  A
C120        C121   1.399       .  A
C120        H129   1.083       .  S
C121        C122   1.401   1_556  A
C121        H130   1.083       .  S
C122        C125   1.440       .  S
C122        C123   1.401       .  A
C123        C124   1.399       .  A
C123        H131   1.083       .  S
C124        H132   1.083       .  S
C125        C126   1.206       .  T
C127        C128   1.206       .  T
C133        C141   1.439       .  S
C133        C134   1.401       .  A
C133        C138   1.401   1_554  A
C134        C135   1.399       .  A
C134        H143   1.083       .  S
C135        C136   1.401       .  A
C135        H144   1.083       .  S
C136        C139   1.439       .  S
C136        C137   1.401   1_554  A
C137        C138   1.399       .  A
C137        H145   1.083       .  S
C138        H146   1.083       .  S
C139        C140   1.206       .  T
C141        C142   1.206       .  T
C147        C155   1.439       .  S
C147        C148   1.401       .  A
C147        C152   1.401       .  A
C148        C149   1.399       .  A
C148        H157   1.083       .  S
C149        C150   1.401       .  A
C149        H158   1.083       .  S
C150        C153   1.439       .  S
C150        C151   1.401       .  A
C151        C152   1.399       .  A
C151        H159   1.084       .  S
C152        H160   1.083       .  S
C153        C154   1.206       .  T
C155        C156   1.205       .  T
C161        C169   1.439       .  S
C161        C162   1.401       .  A
C161        C166   1.401       .  A
C162        C163   1.399       .  A
C162        H171   1.083       .  S
C163        C164   1.401       .  A
C163        H172   1.084       .  S
C164        C167   1.439       .  S
C164        C165   1.401       .  A
C165        C166   1.398       .  A
C165        H173   1.083       .  S
C166        H174   1.084       .  S
C167        C168   1.205       .  T
C169        C170   1.205       .  T
C175        C183   1.439       .  S
C175        C176   1.401       .  A
C175        C180   1.401       .  A
C176        C177   1.399       .  A
C176        H185   1.083       .  S
C177        C178   1.401       .  A
C177        H186   1.083       .  S
C178        C181   1.439       .  S
C178        C179   1.401       .  A
C179        C180   1.399       .  A
C179        H187   1.084       .  S
C180        H188   1.083       .  S
C181        C182   1.205       .  T
C183        C184   1.205       .  T
C189        C197   1.439       .  S
C189        C190   1.401       .  A
C189        C194   1.401       .  A
C190        C191   1.399       .  A
C190        H199   1.083   1_554  S
C191        C192   1.401       .  A
C191        H200   1.083   1_554  S
C192        C195   1.439       .  S
C192        C193   1.401       .  A
C193        C194   1.399       .  A
C193        H201   1.083       .  S
C194        H202   1.083       .  S
C195        C196   1.206       .  T
C197        C198   1.206       .  T
C203        C211   1.440       .  S
C203        C204   1.401       .  A
C203        C208   1.401       .  A
C204        C205   1.399       .  A
C204        H213   1.083       .  S
C205        C206   1.401       .  A
C205        H214   1.083       .  S
C206        C209   1.440       .  S
C206        C207   1.401       .  A
C207        C208   1.399       .  A
C207        H215   1.083       .  S
C208        H216   1.083       .  S
C209        C210   1.206       .  T
C211        C212   1.206       .  T
C217        C225   1.440       .  S
C217        C218   1.401       .  A
C217        C222   1.401       .  A
C218        C219   1.399       .  A
C218        H227   1.084       .  S
C219        C220   1.401       .  A
C219        H228   1.083       .  S
C220        C223   1.440       .  S
C220        C221   1.401       .  A
C221        C222   1.399       .  A
C221        H229   1.084       .  S
C222        H230   1.083       .  S
C223        C224   1.206       .  T
C225        C226   1.206       .  T
C231        C239   1.440       .  S
C231        C232   1.401       .  A
C231        C236   1.401       .  A
C232        C233   1.399       .  A
C232        H241   1.084       .  S
C233        C234   1.401       .  A
C233        H242   1.083       .  S
C234        C237   1.440       .  S
C234        C235   1.401       .  A
C235        C236   1.399       .  A
C235        H243   1.083       .  S
C236        H244   1.083       .  S
C237        C238   1.206       .  T
C239        C240   1.206       .  T
C245        C253   1.439       .  S
C245        C246   1.401       .  A
C245        C250   1.401   1_554  A
C246        C247   1.399       .  A
C246        H255   1.083       .  S
C247        C248   1.401       .  A
C247        H256   1.084       .  S
C248        C251   1.439       .  S
C248        C249   1.401   1_554  A
C249        C250   1.399       .  A
C249        H257   1.083       .  S
C250        H258   1.083       .  S
C251        C252   1.205       .  T
C253        C254   1.206       .  T
C259        C267   1.439       .  S
C259        C260   1.401       .  A
C259        C264   1.401       .  A
C260        C261   1.399       .  A
C260        H269   1.083       .  S
C261        C262   1.401       .  A
C261        H270   1.083       .  S
C262        C265   1.439       .  S
C262        C263   1.401       .  A
C263        C264   1.398       .  A
C263        H271   1.083       .  S
C264        H272   1.084       .  S
C265        C266   1.206       .  T
C267        C268   1.205       .  T
C273        C281   1.439       .  S
C273        C274   1.401       .  A
C273        C278   1.401       .  A
C274        C275   1.399       .  A
C274        H283   1.083       .  S
C275        C276   1.401       .  A
C275        H284   1.083       .  S
C276        C279   1.439       .  S
C276        C277   1.401       .  A
C277        C278   1.399       .  A
C277        H285   1.083       .  S
C278        H286   1.083       .  S
C279        C280   1.206       .  T
C281        C282   1.206       .  T
C287        C295   1.439       .  S
C287        C288   1.401       .  A
C287        C292   1.401       .  A
C288        C289   1.399       .  A
C288        H297   1.083       .  S
C289        C290   1.401       .  A
C289        H298   1.084       .  S
C290        C293   1.439       .  S
C290        C291   1.401       .  A
C291        C292   1.399       .  A
C291        H299   1.083       .  S
C292        H300   1.083       .  S
C293        C294   1.205       .  T
C295        C296   1.205       .  T
