geometry optimzed in LAMMPS
_audit_creation_date              2020-11-30 
_audit_creation_method            'lammps2cif' 
_symmetry_space_group_name_H-M    'P1' 
_symmetry_Int_Tables_number       1 
_symmetry_cell_setting            triclinic 
loop_ 
_symmetry_equiv_pos_as_xyz 
  x,y,z 
_cell_length_a                    27.80465625 
_cell_length_b                    27.80514083037148 
_cell_length_c                    23.889690410000217 
_cell_angle_alpha                 90.00000688323851 
_cell_angle_beta                  90.00000364548822 
_cell_angle_gamma                 90.00029617265525 
loop_ 
_atom_site_label 
_atom_site_type_symbol 
_atom_site_fract_x 
_atom_site_fract_y 
_atom_site_fract_z 
_atom_site_charge 
C1          C  0.66217401  0.66497498  0.24999986     0.07000
C2          C  0.67997174  0.68282537  0.19922534    -0.09200
C3          C  0.71554850  0.71850463  0.19917476     0.04500
C4          C  0.73333137  0.73634066  0.25000002    -0.07700
C5          C  0.71554851  0.71850445  0.30082520     0.07000
C6          C  0.67997182  0.68282514  0.30077444    -0.07100
H7          H  0.66619837  0.66900150  0.15991214     0.12500
H8          H  0.76087869  0.76395791  0.25000004     0.10100
H9          H  0.66619844  0.66900113  0.34008756     0.09900
C10         C  0.82076924  0.82352101  0.49999989     0.07000
C11         C  0.80291591  0.80572657  0.05077445    -0.09200
C12         C  0.76722920  0.77015737  0.05082523     0.04500
C13         C  0.74938986  0.75237770  0.50000020    -0.07700
C14         C  0.76722891  0.77015736  0.44917486     0.07000
C15         C  0.80291564  0.80572656  0.44922541    -0.07100
H16         H  0.81674088  0.81949903  0.09008756     0.12500
H17         H  0.72176552  0.72483737  0.50000038     0.10100
H18         H  0.81674049  0.81949892  0.40991222     0.09900
C19         C  0.66299337  0.32355222  0.24999993     0.07000
C20         C  0.68084544  0.30575622  0.19922529    -0.09200
C21         C  0.71652830  0.27018323  0.19917461     0.04500
C22         C  0.73436593  0.25240236  0.25000003    -0.07700
C23         C  0.71652829  0.27018326  0.30082543     0.07000
C24         C  0.68084545  0.30575626  0.30077460    -0.07100
H25         H  0.66702029  0.31952812  0.15991220     0.12500
H26         H  0.76198576  0.22485779  0.25000002     0.10100
H27         H  0.66702028  0.31952827  0.34008772     0.09900
C28         C  0.82154142  0.16495606  0.49999990     0.07000
C29         C  0.80374903  0.18281175  0.44922529    -0.09200
C30         C  0.76818409  0.21850259  0.44917460     0.04500
C31         C  0.75040674  0.23634375  0.50000005    -0.07700
C32         C  0.76818408  0.21850253  0.05082552     0.07000
C33         C  0.80374897  0.18281161  0.05077472    -0.07100
H34         H  0.81751943  0.16898509  0.40991214     0.12500
H35         H  0.72286951  0.26397075  0.50000010     0.10100
H36         H  0.81751944  0.16898499  0.09008774     0.09900
C37         C  0.32074848  0.66416451  0.25000002     0.07000
C38         C  0.30289812  0.68196219  0.30077463    -0.09200
C39         C  0.26721856  0.71753840  0.30082526     0.04500
C40         C  0.24938289  0.73532122  0.24999980    -0.07700
C41         C  0.26721880  0.71753839  0.19917446     0.07000
C42         C  0.30289837  0.68196220  0.19922532    -0.07100
H43         H  0.31672136  0.66818835  0.34008781     0.12500
H44         H  0.22176496  0.76286758  0.24999969     0.10100
H45         H  0.31672174  0.66818831  0.15991226     0.09900
C46         C  0.16219258  0.82275153  0.50000007     0.07000
C47         C  0.17998682  0.80489794  0.44922541    -0.09200
C48         C  0.21555619  0.76921162  0.44917457     0.04500
C49         C  0.23333562  0.75137233  0.49999994    -0.07700
C50         C  0.21555622  0.76921155  0.05082528     0.07000
C51         C  0.17998681  0.80489788  0.05077461    -0.07100
H52         H  0.16621507  0.81872346  0.40991228     0.12500
H53         H  0.26087645  0.72374902  0.49999991     0.10100
H54         H  0.16621512  0.81872332  0.09008767     0.09900
O55         O  0.04279067  0.94268115  0.04652964    -0.69100
O56         O  0.94094132  0.04502388  0.04652937    -0.70100
O57         O  0.94069366  0.94292847  0.04652938    -0.58700
O58         O  0.04303863  0.04477625  0.04652964    -0.67100
O59         O  0.04303884  0.04477622  0.45347047    -0.66700
O60         O  0.94069384  0.94292845  0.45347037    -0.57900
O61         O  0.94094139  0.04502390  0.45347038    -0.70400
O62         O  0.04279068  0.94268102  0.45347049    -0.69200
Cu63       Cu  0.99186600  0.99385251  0.04981580     1.04600
Cu64       Cu  0.99186612  0.99385249  0.45018409     1.04300
C65         C  0.05870182  0.92669302  0.50000008     0.97100
C66         C  0.92503003  0.06101188  0.49999990     0.96200
C67         C  0.92470579  0.92701713  0.49999989     0.88400
C68         C  0.05902748  0.06068683  0.50000009     0.94600
O69         O  0.44068279  0.54476682  0.29652954    -0.69100
O70         O  0.54304925  0.44294064  0.29652929    -0.70100
O71         O  0.54278002  0.54503625  0.29652930    -0.58700
O72         O  0.44095164  0.44267125  0.29652966    -0.67100
O73         O  0.44095156  0.44267117  0.20347061    -0.66700
O74         O  0.54277985  0.54503635  0.20347023    -0.57900
O75         O  0.54304911  0.44294056  0.20347026    -0.72000
O76         O  0.44068262  0.54476670  0.20347048    -0.69200
Cu77       Cu  0.49186592  0.49385369  0.29981571     1.04600
Cu78       Cu  0.49186577  0.49385365  0.20018411     1.04300
C79         C  0.42469139  0.56067474  0.25000001     0.97100
C80         C  0.55904087  0.42703291  0.24999977     0.96200
C81         C  0.55868801  0.56102763  0.24999977     0.88400
C82         C  0.42504327  0.42668009  0.25000018     0.94600
C83         C  0.16297848  0.16416893  0.50000006     0.07000
C84         C  0.18083354  0.18196174  0.44922544    -0.09200
C85         C  0.21652285  0.21752840  0.44917460     0.04500
C86         C  0.23436394  0.23530639  0.49999979    -0.07700
C87         C  0.21652296  0.21752843  0.05082514     0.07000
C88         C  0.18083360  0.18196179  0.05077447    -0.07100
H89         H  0.16700630  0.16819153  0.40991236     0.12500
H90         H  0.26198911  0.26284574  0.49999969     0.10100
H91         H  0.16700639  0.16819169  0.09008763     0.09900
C92         C  0.32155664  0.32273304  0.25000010     0.07000
C93         C  0.30376114  0.30488034  0.30077461    -0.09200
C94         C  0.26818971  0.26919573  0.30082518     0.04500
C95         C  0.25040919  0.25135751  0.24999987    -0.07700
C96         C  0.26818980  0.26919588  0.19917466     0.07000
C97         C  0.30376116  0.30488057  0.19922546    -0.07100
H98         H  0.31753349  0.31870520  0.34008777     0.12500
H99         H  0.22286652  0.22373547  0.24999977     0.10100
H100        H  0.31753350  0.31870558  0.15991239     0.09900
C101        C  0.23478049  0.23575617  0.39692788    -0.09400
C102        C  0.24996168  0.25093802  0.35307174    -0.11000
C103        C  0.23478071  0.23575636  0.10307180    -0.09400
C104        C  0.24996192  0.25093825  0.14692795    -0.11000
C105        C  0.38866497  0.39011918  0.25000027    -0.09400
C106        C  0.35808049  0.35939803  0.25000024    -0.11000
C107        C  0.09558527  0.09706801  0.50000021    -0.09400
C108        C  0.12630827  0.12765051  0.50000019    -0.11000
C109        C  0.12567044  0.85941773  0.50000018    -0.09400
C110        C  0.09508508  0.89013761  0.50000016    -0.11000
C111        C  0.35741036  0.62763788  0.24999999    -0.09400
C112        C  0.38813043  0.59705262  0.24999999    -0.11000
C113        C  0.24896403  0.73576939  0.14692771    -0.09400
C114        C  0.23378355  0.75095294  0.10307193    -0.11000
C115        C  0.24896374  0.73576963  0.35307191    -0.09400
C116        C  0.23378344  0.75095311  0.39692782    -0.11000
C117        C  0.88864655  0.09756725  0.49999982    -0.09400
C118        C  0.85806160  0.12828766  0.49999980    -0.11000
C119        C  0.59560361  0.39065663  0.24999979    -0.09400
C120        C  0.62632683  0.36007439  0.24999988    -0.11000
C121        C  0.73478206  0.25195086  0.14692795    -0.09400
C122        C  0.74996017  0.23676467  0.10307224    -0.11000
C123        C  0.73478203  0.25195092  0.35307217    -0.09400
C124        C  0.74996013  0.23676475  0.39692792    -0.11000
C125        C  0.85743326  0.86004542  0.49999975    -0.09400
C126        C  0.88815128  0.89063281  0.49999977    -0.11000
C127        C  0.62564907  0.62831121  0.24999983    -0.09400
C128        C  0.59506540  0.59758934  0.24999979    -0.11000
C129        C  0.73378199  0.73675631  0.35307188    -0.09400
C130        C  0.74896780  0.75193300  0.39692823    -0.11000
C131        C  0.73378227  0.73675645  0.14692821    -0.09400
C132        C  0.74896819  0.75193319  0.10307194    -0.11000
C133        C  0.66217384  0.66497502  0.74999978     0.07000
C134        C  0.67997176  0.68282527  0.69922529    -0.09200
C135        C  0.71554852  0.71850455  0.69917481     0.04500
C136        C  0.73333135  0.73634044  0.75000012    -0.07700
C137        C  0.71554841  0.71850431  0.80082525     0.07000
C138        C  0.67997152  0.68282519  0.80077442    -0.07100
H139        H  0.66619855  0.66900135  0.65991213     0.12500
H140        H  0.76087883  0.76395770  0.75000028     0.10100
H141        H  0.66619804  0.66900124  0.84008748     0.09900
C142        C  0.82076924  0.82352102  0.99999988     0.07000
C143        C  0.80291595  0.80572663  0.55077453    -0.09200
C144        C  0.76722923  0.77015743  0.55082536     0.04500
C145        C  0.74938987  0.75237769  0.00000002    -0.07700
C146        C  0.76722895  0.77015742  0.94917475     0.07000
C147        C  0.80291570  0.80572664  0.94922529    -0.07100
H148        H  0.81674096  0.81949913  0.59008757     0.12500
H149        H  0.72176554  0.72483735  0.00000010     0.10100
H150        H  0.81674053  0.81949900  0.90991226     0.09900
C151        C  0.66299332  0.32355222  0.74999985     0.07000
C152        C  0.68084541  0.30575613  0.69922525    -0.09200
C153        C  0.71652826  0.27018315  0.69917458     0.04500
C154        C  0.73436577  0.25240233  0.75000008    -0.07700
C155        C  0.71652809  0.27018323  0.80082547     0.07000
C156        C  0.68084524  0.30575626  0.80077462    -0.07100
H157        H  0.66702022  0.31952801  0.65991205     0.12500
H158        H  0.76198568  0.22485770  0.75000015     0.10100
H159        H  0.66702001  0.31952829  0.84008761     0.09900
C160        C  0.82154118  0.16495592  0.99999998     0.07000
C161        C  0.80374884  0.18281168  0.94922536    -0.09200
C162        C  0.76818398  0.21850262  0.94917468     0.04500
C163        C  0.75040669  0.23634380  0.00000016    -0.07700
C164        C  0.76818408  0.21850243  0.55082542     0.07000
C165        C  0.80374906  0.18281163  0.55077459    -0.07100
H166        H  0.81751927  0.16898505  0.90991219     0.12500
H167        H  0.72286941  0.26397076  0.00000026     0.10100
H168        H  0.81751956  0.16898490  0.59008770     0.09900
C169        C  0.32074844  0.66416449  0.74999998     0.07000
C170        C  0.30289814  0.68196226  0.80077457    -0.09200
C171        C  0.26721858  0.71753847  0.80082522     0.04500
C172        C  0.24938290  0.73532126  0.74999980    -0.07700
C173        C  0.26721873  0.71753842  0.69917448     0.07000
C174        C  0.30289824  0.68196216  0.69922531    -0.07100
H175        H  0.31672138  0.66818843  0.84008778     0.12500
H176        H  0.22176488  0.76286766  0.74999973     0.10100
H177        H  0.31672149  0.66818815  0.65991215     0.09900
C178        C  0.16219256  0.82275150  0.99999998     0.07000
C179        C  0.17998681  0.80489797  0.94922528    -0.09200
C180        C  0.21555623  0.76921166  0.94917451     0.04500
C181        C  0.23333560  0.75137237  0.99999986    -0.07700
C182        C  0.21555624  0.76921159  0.55082534     0.07000
C183        C  0.17998687  0.80489791  0.55077467    -0.07100
H184        H  0.16621512  0.81872341  0.90991228     0.12500
H185        H  0.26087648  0.72374900  0.99999980     0.10100
H186        H  0.16621518  0.81872337  0.59008779     0.09900
O187        O  0.04279061  0.94268108  0.54652962    -0.69100
O188        O  0.94094132  0.04502396  0.54652949    -0.70100
O189        O  0.94069364  0.94292848  0.54652952    -0.58700
O190        O  0.04303864  0.04477625  0.54652961    -0.67100
O191        O  0.04303882  0.04477621  0.95347050    -0.66700
O192        O  0.94069385  0.94292849  0.95347022    -0.57900
O193        O  0.94094138  0.04502400  0.95347027    -0.70400
O194        O  0.04279065  0.94268107  0.95347051    -0.69200
Cu195      Cu  0.99186600  0.99385251  0.54981590     1.04600
Cu196      Cu  0.99186612  0.99385254  0.95018397     1.04300
C197        C  0.05870182  0.92669307  0.00000009     0.97100
C198        C  0.92503004  0.06101191  0.99999985     0.96200
C199        C  0.92470580  0.92701715  0.99999976     0.88400
C200        C  0.05902747  0.06068681  0.00000010     0.94600
O201        O  0.44068287  0.54476683  0.79652948    -0.69100
O202        O  0.54304930  0.44294063  0.79652937    -0.70100
O203        O  0.54278009  0.54503616  0.79652938    -0.58700
O204        O  0.44095164  0.44267128  0.79652960    -0.67100
O205        O  0.44095159  0.44267124  0.70347052    -0.66700
O206        O  0.54277985  0.54503620  0.70347027    -0.57900
O207        O  0.54304909  0.44294062  0.70347030    -0.72000
O208        O  0.44068263  0.54476677  0.70347038    -0.69200
Cu209      Cu  0.49186596  0.49385368  0.79981580     1.04600
Cu210      Cu  0.49186578  0.49385366  0.70018402     1.04300
C211        C  0.42469145  0.56067477  0.74999998     0.97100
C212        C  0.55904089  0.42703296  0.74999978     0.96200
C213        C  0.55868799  0.56102755  0.74999978     0.88400
C214        C  0.42504329  0.42668014  0.75000008     0.94600
C215        C  0.16297848  0.16416885  0.99999992     0.07000
C216        C  0.18083360  0.18196161  0.94922527    -0.09200
C217        C  0.21652289  0.21752833  0.94917454     0.04500
C218        C  0.23436395  0.23530620  0.99999980    -0.07700
C219        C  0.21652297  0.21752853  0.55082510     0.07000
C220        C  0.18083367  0.18196187  0.55077455    -0.07100
H221        H  0.16700648  0.16819145  0.90991221     0.12500
H222        H  0.26198923  0.26284561  0.99999977     0.10100
H223        H  0.16700654  0.16819178  0.59008774     0.09900
C224        C  0.32155660  0.32273310  0.75000000     0.07000
C225        C  0.30376100  0.30488043  0.80077445    -0.09200
C226        C  0.26818962  0.26919580  0.80082505     0.04500
C227        C  0.25040902  0.25135757  0.74999972    -0.07700
C228        C  0.26818978  0.26919588  0.69917454     0.07000
C229        C  0.30376115  0.30488057  0.69922534    -0.07100
H230        H  0.31753330  0.31870532  0.84008776     0.12500
H231        H  0.22286642  0.22373564  0.74999964     0.10100
H232        H  0.31753356  0.31870554  0.65991232     0.09900
C233        C  0.23478048  0.23575617  0.89692780    -0.09400
C234        C  0.24996165  0.25093803  0.85307163    -0.11000
C235        C  0.23478079  0.23575638  0.60307167    -0.09400
C236        C  0.24996201  0.25093815  0.64692783    -0.11000
C237        C  0.38866499  0.39011922  0.75000011    -0.09400
C238        C  0.35808049  0.35939806  0.75000011    -0.11000
C239        C  0.09558525  0.09706797  0.00000013    -0.09400
C240        C  0.12630825  0.12765046  0.99999999    -0.11000
C241        C  0.12567038  0.85941770  0.00000002    -0.09400
C242        C  0.09508502  0.89013758  0.00000009    -0.11000
C243        C  0.35741029  0.62763781  0.75000009    -0.09400
C244        C  0.38813043  0.59705261  0.75000010    -0.11000
C245        C  0.24896385  0.73576942  0.64692781    -0.09400
C246        C  0.23378348  0.75095300  0.60307201    -0.11000
C247        C  0.24896378  0.73576966  0.85307186    -0.09400
C248        C  0.23378348  0.75095315  0.89692775    -0.11000
C249        C  0.88864658  0.09756732  0.99999994    -0.09400
C250        C  0.85806154  0.12828766  0.99999994    -0.11000
C251        C  0.59560364  0.39065669  0.74999966    -0.09400
C252        C  0.62632684  0.36007445  0.74999971    -0.11000
C253        C  0.73478205  0.25195074  0.64692789    -0.09400
C254        C  0.74996017  0.23676459  0.60307215    -0.11000
C255        C  0.73478187  0.25195100  0.85307225    -0.09400
C256        C  0.74995994  0.23676482  0.89692800    -0.11000
C257        C  0.85743326  0.86004545  0.99999983    -0.09400
C258        C  0.88815128  0.89063284  0.99999968    -0.11000
C259        C  0.62564890  0.62831124  0.74999964    -0.09400
C260        C  0.59506522  0.59758938  0.74999965    -0.11000
C261        C  0.73378198  0.73675610  0.85307193    -0.09400
C262        C  0.74896788  0.75193301  0.89692814    -0.11000
C263        C  0.73378227  0.73675646  0.64692830    -0.09400
C264        C  0.74896823  0.75193327  0.60307209    -0.11000
loop_ 
_geom_bond_atom_site_label_1 
_geom_bond_atom_site_label_2 
_geom_bond_distance 
_geom_bond_site_symmetry_2 
_ccdc_geom_bond_type 
C1            C2   1.401       .  A
C1            C6   1.401       .  A
C1          C127   1.439       .  S
C2            C3   1.401       .  A
C2            H7   1.085       .  S
C3            C4   1.402       .  A
C3          C131   1.440       .  S
C4            C5   1.402       .  A
C4            H8   1.085       .  S
C5            C6   1.401       .  A
C5          C129   1.440       .  S
C6            H9   1.085       .  S
C10          C15   1.401       .  A
C10         C143   1.401       .  A
C10         C125   1.439       .  S
C11          C12   1.401       .  A
C11         C142   1.401   1_554  A
C11          H16   1.085       .  S
C12         C145   1.402       .  A
C12         C132   1.440       .  S
C13          C14   1.402       .  A
C13         C144   1.402       .  A
C13          H17   1.085       .  S
C14          C15   1.401       .  A
C14         C130   1.440       .  S
C15          H18   1.085       .  S
C19          C20   1.401       .  A
C19          C24   1.401       .  A
C19         C120   1.439       .  S
C20          C21   1.401       .  A
C20          H25   1.085       .  S
C21          C22   1.402       .  A
C21         C121   1.440       .  S
C22          C23   1.402       .  A
C22          H26   1.085       .  S
C23          C24   1.401       .  A
C23         C123   1.440       .  S
C24          H27   1.085       .  S
C28          C29   1.401       .  A
C28         C165   1.401       .  A
C28         C118   1.439       .  S
C29          C30   1.401       .  A
C29          H34   1.085       .  S
C30          C31   1.402       .  A
C30         C124   1.440       .  S
C31         C164   1.402       .  A
C31          H35   1.085       .  S
C32          C33   1.401       .  A
C32         C163   1.402       .  A
C32         C122   1.440       .  S
C33         C160   1.401   1_554  A
C33          H36   1.085       .  S
C37          C38   1.401       .  A
C37          C42   1.401       .  A
C37         C111   1.439       .  S
C38          C39   1.401       .  A
C38          H43   1.085       .  S
C39          C40   1.402       .  A
C39         C115   1.440       .  S
C40          C41   1.402       .  A
C40          H44   1.085       .  S
C41          C42   1.401       .  A
C41         C113   1.440       .  S
C42          H45   1.085       .  S
C46          C47   1.401       .  A
C46         C183   1.401       .  A
C46         C109   1.439       .  S
C47          C48   1.401       .  A
C47          H52   1.085       .  S
C48          C49   1.402       .  A
C48         C116   1.440       .  S
C49         C182   1.402       .  A
C49          H53   1.085       .  S
C50          C51   1.401       .  A
C50         C181   1.402   1_554  A
C50         C114   1.440       .  S
C51         C178   1.401   1_554  A
C51          H54   1.085       .  S
O55         Cu63   2.009   1_455  S
O55         C197   1.276       .  A
O56         Cu63   2.009   1_545  S
O56         C198   1.276   1_554  A
O57         Cu63   2.009       .  S
O57         C199   1.276   1_554  A
O58         Cu63   2.009   1_445  S
O58         C200   1.276       .  A
O59         Cu64   2.009   1_445  S
O59          C68   1.276       .  A
O60         Cu64   2.009       .  S
O60          C67   1.276       .  A
O61         Cu64   2.009   1_545  S
O61          C66   1.276       .  A
O62         Cu64   2.009   1_455  S
O62          C65   1.276       .  A
Cu63       Cu196   2.380   1_554  S
Cu64       Cu195   2.380       .  S
C65         C110   1.434       .  S
C65         O187   1.276       .  A
C66         C117   1.434       .  S
C66         O188   1.276       .  A
C67         C126   1.434       .  S
C67         O189   1.276       .  A
C68         C107   1.434       .  S
C68         O190   1.276       .  A
O69         Cu77   2.009       .  S
O69          C79   1.276       .  A
O70         Cu77   2.009       .  S
O70          C80   1.276       .  A
O71         Cu77   2.009       .  S
O71          C81   1.276       .  A
O72         Cu77   2.009       .  S
O72          C82   1.276       .  A
O73         Cu78   2.009       .  S
O73          C82   1.276       .  A
O74         Cu78   2.009       .  S
O74          C81   1.276       .  A
O75         Cu78   2.009       .  S
O75          C80   1.276       .  A
O76         Cu78   2.009       .  S
O76          C79   1.276       .  A
Cu77        Cu78   2.380       .  S
C79         C112   1.434       .  S
C80         C119   1.434       .  S
C81         C128   1.434       .  S
C82         C105   1.434       .  S
C83          C84   1.401       .  A
C83         C220   1.401       .  A
C83         C108   1.439       .  S
C84          C85   1.401       .  A
C84          H89   1.085       .  S
C85          C86   1.402       .  A
C85         C101   1.440       .  S
C86         C219   1.402       .  A
C86          H90   1.085       .  S
C87          C88   1.401       .  A
C87         C218   1.402   1_554  A
C87         C103   1.440       .  S
C88         C215   1.401   1_554  A
C88          H91   1.085       .  S
C92          C93   1.401       .  A
C92          C97   1.401       .  A
C92         C106   1.439       .  S
C93          C94   1.401       .  A
C93          H98   1.085       .  S
C94          C95   1.402       .  A
C94         C102   1.440       .  S
C95          C96   1.402       .  A
C95          H99   1.085       .  S
C96          C97   1.401       .  A
C96         C104   1.440       .  S
C97         H100   1.085       .  S
C101        C102   1.206       .  T
C103        C104   1.206       .  T
C105        C106   1.205       .  T
C107        C108   1.205       .  T
C109        C110   1.205       .  T
C111        C112   1.205       .  T
C113        C114   1.206       .  T
C115        C116   1.206       .  T
C117        C118   1.205       .  T
C119        C120   1.205       .  T
C121        C122   1.206       .  T
C123        C124   1.206       .  T
C125        C126   1.205       .  T
C127        C128   1.205       .  T
C129        C130   1.206       .  T
C131        C132   1.206       .  T
C133        C134   1.401       .  A
C133        C138   1.401       .  A
C133        C259   1.439       .  S
C134        C135   1.401       .  A
C134        H139   1.085       .  S
C135        C136   1.402       .  A
C135        C263   1.440       .  S
C136        C137   1.402       .  A
C136        H140   1.085       .  S
C137        C138   1.401       .  A
C137        C261   1.440       .  S
C138        H141   1.085       .  S
C142        C147   1.401       .  A
C142        C257   1.439       .  S
C143        C144   1.401       .  A
C143        H148   1.085       .  S
C144        C264   1.440       .  S
C145        C146   1.402   1_554  A
C145        H149   1.085       .  S
C146        C147   1.401       .  A
C146        C262   1.440       .  S
C147        H150   1.085       .  S
C151        C152   1.401       .  A
C151        C156   1.401       .  A
C151        C252   1.439       .  S
C152        C153   1.401       .  A
C152        H157   1.085       .  S
C153        C154   1.402       .  A
C153        C253   1.440       .  S
C154        C155   1.402       .  A
C154        H158   1.085       .  S
C155        C156   1.401       .  A
C155        C255   1.440       .  S
C156        H159   1.085       .  S
C160        C161   1.401       .  A
C160        C250   1.439       .  S
C161        C162   1.401       .  A
C161        H166   1.085       .  S
C162        C163   1.402   1_556  A
C162        C256   1.440       .  S
C163        H167   1.085       .  S
C164        C165   1.401       .  A
C164        C254   1.440       .  S
C165        H168   1.085       .  S
C169        C170   1.401       .  A
C169        C174   1.401       .  A
C169        C243   1.439       .  S
C170        C171   1.401       .  A
C170        H175   1.085       .  S
C171        C172   1.402       .  A
C171        C247   1.440       .  S
C172        C173   1.402       .  A
C172        H176   1.085       .  S
C173        C174   1.401       .  A
C173        C245   1.440       .  S
C174        H177   1.085       .  S
C178        C179   1.401       .  A
C178        C241   1.439   1_556  S
C179        C180   1.401       .  A
C179        H184   1.085       .  S
C180        C181   1.402       .  A
C180        C248   1.440       .  S
C181        H185   1.085       .  S
C182        C183   1.401       .  A
C182        C246   1.440       .  S
C183        H186   1.085       .  S
O187       Cu195   2.009   1_455  S
O188       Cu195   2.009   1_545  S
O189       Cu195   2.009       .  S
O190       Cu195   2.009   1_445  S
O191       Cu196   2.009   1_445  S
O191        C200   1.276   1_556  A
O192       Cu196   2.009       .  S
O192        C199   1.276       .  A
O193       Cu196   2.009   1_545  S
O193        C198   1.276       .  A
O194       Cu196   2.009   1_455  S
O194        C197   1.276   1_556  A
C197        C242   1.434       .  S
C198        C249   1.434       .  S
C199        C258   1.434       .  S
C200        C239   1.434       .  S
O201       Cu209   2.009       .  S
O201        C211   1.276       .  A
O202       Cu209   2.009       .  S
O202        C212   1.276       .  A
O203       Cu209   2.009       .  S
O203        C213   1.276       .  A
O204       Cu209   2.009       .  S
O204        C214   1.276       .  A
O205       Cu210   2.009       .  S
O205        C214   1.276       .  A
O206       Cu210   2.009       .  S
O206        C213   1.276       .  A
O207       Cu210   2.009       .  S
O207        C212   1.276       .  A
O208       Cu210   2.009       .  S
O208        C211   1.276       .  A
Cu209      Cu210   2.380       .  S
C211        C244   1.434       .  S
C212        C251   1.434       .  S
C213        C260   1.434       .  S
C214        C237   1.434       .  S
C215        C216   1.401       .  A
C215        C240   1.439       .  S
C216        C217   1.401       .  A
C216        H221   1.085       .  S
C217        C218   1.402       .  A
C217        C233   1.440       .  S
C218        H222   1.085       .  S
C219        C220   1.401       .  A
C219        C235   1.440       .  S
C220        H223   1.085       .  S
C224        C225   1.401       .  A
C224        C229   1.401       .  A
C224        C238   1.439       .  S
C225        C226   1.401       .  A
C225        H230   1.085       .  S
C226        C227   1.402       .  A
C226        C234   1.440       .  S
C227        C228   1.402       .  A
C227        H231   1.085       .  S
C228        C229   1.401       .  A
C228        C236   1.440       .  S
C229        H232   1.085       .  S
C233        C234   1.206       .  T
C235        C236   1.206       .  T
C237        C238   1.205       .  T
C239        C240   1.205   1_554  T
C241        C242   1.205       .  T
C243        C244   1.205       .  T
C245        C246   1.206       .  T
C247        C248   1.206       .  T
C249        C250   1.205       .  T
C251        C252   1.205       .  T
C253        C254   1.206       .  T
C255        C256   1.206       .  T
C257        C258   1.205       .  T
C259        C260   1.205       .  T
C261        C262   1.206       .  T
C263        C264   1.206       .  T
