geometry optimzed in LAMMPS
_audit_creation_date              2020-11-30 
_audit_creation_method            'lammps2cif' 
_symmetry_space_group_name_H-M    'P1' 
_symmetry_Int_Tables_number       1 
_symmetry_cell_setting            triclinic 
loop_ 
_symmetry_equiv_pos_as_xyz 
  x,y,z 
_cell_length_a                    26.83389403 
_cell_length_b                    26.21225467325217 
_cell_length_c                    23.020340687490542 
_cell_angle_alpha                 87.210957247346 
_cell_angle_beta                  88.22134646195315 
_cell_angle_gamma                 89.8185578224446 
loop_ 
_atom_site_label 
_atom_site_type_symbol 
_atom_site_fract_x 
_atom_site_fract_y 
_atom_site_fract_z 
_atom_site_charge 
C1          C  0.66937887  0.65801812  0.23740989     0.05700
C2          C  0.69609013  0.67551824  0.18693623    -0.10500
C3          C  0.73500421  0.71107907  0.18991157     0.03200
C4          C  0.74799995  0.72798759  0.24425556    -0.09000
C5          C  0.72161559  0.71115188  0.29519060     0.05700
C6          C  0.68190220  0.67703193  0.29121649    -0.08400
H7          H  0.68683200  0.66064333  0.14558807     0.11300
H8          H  0.77743346  0.75592755  0.24608122     0.08800
H9          H  0.66096630  0.66593535  0.33060219     0.08600
C10         C  0.83428490  0.82264590  0.48580913     0.05700
C11         C  0.82416916  0.80372298  0.43141204    -0.10500
C12         C  0.78694204  0.76699752  0.42583884     0.03200
C13         C  0.76069298  0.74778555  0.47596700    -0.09000
C14         C  0.77170897  0.75972350  0.03274736     0.05700
C15         C  0.80806091  0.79749166  0.03865782    -0.08400
H16         H  0.84502286  0.81810506  0.39298899     0.11300
H17         H  0.73344880  0.71773117  0.47313424     0.08800
H18         H  0.81653952  0.81019358  0.08126517     0.08600
C19         C  0.67167252  0.32513132  0.23153618     0.05700
C20         C  0.69065915  0.31226268  0.28670795    -0.10500
C21         C  0.72606950  0.27330842  0.29450294     0.03200
C22         C  0.74501553  0.24851368  0.24544931    -0.09000
C23         C  0.72876792  0.26223193  0.18926818     0.05700
C24         C  0.69132357  0.30019253  0.18306008    -0.08400
H25         H  0.67821069  0.33248336  0.32435377     0.11300
H26         H  0.77368227  0.21963142  0.25034652     0.08800
H27         H  0.67620474  0.30984235  0.14093144     0.08600
C28         C  0.83857704  0.15384809  0.49194636     0.05700
C29         C  0.80624750  0.19208792  0.02837003    -0.10500
C30         C  0.76554193  0.22656223  0.03064268     0.03200
C31         C  0.76325986  0.22873435  0.48162859    -0.09000
C32         C  0.78083756  0.20391035  0.43176127     0.05700
C33         C  0.81771165  0.16603261  0.43789535    -0.08400
H34         H  0.82718517  0.18366799  0.06706894     0.11300
H35         H  0.73397696  0.25707872  0.47829036     0.08800
H36         H  0.83075685  0.14626030  0.40000036     0.08600
C37         C  0.32331528  0.65676085  0.22687027     0.05700
C38         C  0.30392574  0.66568881  0.28306636    -0.10500
C39         C  0.26788549  0.70329068  0.29220004     0.03200
C40         C  0.24798709  0.73020168  0.24400124    -0.09000
C41         C  0.26411977  0.72020334  0.18711370     0.05700
C42         C  0.30242103  0.68364880  0.17884025    -0.08400
H43         H  0.31666046  0.64365086  0.32066082     0.11300
H44         H  0.21862543  0.75799321  0.25033252     0.08800
H45         H  0.31698220  0.67686660  0.13553190     0.08600
C46         C  0.16313260  0.81610900  0.49415225     0.05700
C47         C  0.17953249  0.80250383  0.04047093    -0.10500
C48         C  0.21549042  0.76332440  0.03421611     0.03200
C49         C  0.23689762  0.74096020  0.47907423    -0.09000
C50         C  0.21761180  0.76765424  0.43017112     0.05700
C51         C  0.18176467  0.80572481  0.43840773    -0.08400
H52         H  0.16647365  0.81250457  0.08337676     0.11300
H53         H  0.26614582  0.71288898  0.47367964     0.08800
H54         H  0.16751921  0.82685877  0.40076241     0.08600
O55         O  0.04397070  0.04497400  0.03276036    -0.71900
O56         O  0.94264096  0.94122250  0.01945460    -0.71900
O57         O  0.04406529  0.94318890  0.01580761    -0.72000
O58         O  0.94227996  0.04291314  0.04058479    -0.72000
O59         O  0.95287591  0.03831329  0.49881638    -0.72000
O60         O  0.05300294  0.93485672  0.50064922    -0.71900
O61         O  0.95248035  0.93544499  0.49421694    -0.71900
O62         O  0.05330799  0.03794606  0.50641112    -0.72000
Ni63       Ni  0.99322351  0.99246873  0.03065584     1.25400
Ni64       Ni  0.00322268  0.98692495  0.49656974     1.25400
C65         C  0.06591306  0.05034561  0.55714920     0.90300
C66         C  0.93280126  0.91448896  0.54094572     0.90200
C67         C  0.06055028  0.93573624  0.96423107     0.90200
C68         C  0.92432710  0.06867120  0.99752007     0.90400
O69         O  0.44534410  0.54097307  0.30674131    -0.71900
O70         O  0.54131594  0.43312488  0.30961610    -0.71900
O71         O  0.54529835  0.53568457  0.31554205    -0.72000
O72         O  0.44125591  0.43803057  0.30066856    -0.72000
O73         O  0.45123181  0.44555836  0.20405288    -0.72000
O74         O  0.55311357  0.54562122  0.21889018    -0.71900
O75         O  0.55235657  0.44215065  0.21324154    -0.71900
O76         O  0.45196187  0.54870051  0.20987466    -0.72000
Ni77       Ni  0.49294329  0.48668063  0.31146706     1.25400
Ni78       Ni  0.50250257  0.49579142  0.20795756     1.25400
C79         C  0.43253035  0.56244759  0.25834201     0.90300
C80         C  0.56308894  0.42008557  0.26236794     0.90200
C81         C  0.56622833  0.55677183  0.26980629     0.90200
C82         C  0.42935032  0.42554226  0.24980848     0.90400
C83         C  0.16362180  0.15947888  0.03323360     0.05700
C84         C  0.17604903  0.17745758  0.08710183    -0.10500
C85         C  0.21262989  0.21481657  0.09121374     0.03200
C86         C  0.23666620  0.23542709  0.04029074    -0.09000
C87         C  0.22454823  0.21770115  0.48380657     0.05700
C88         C  0.18763688  0.18021290  0.47865126    -0.08400
H89         H  0.15723818  0.16195332  0.12643510     0.11300
H90         H  0.26388438  0.26556383  0.04292554     0.08800
H91         H  0.17999123  0.16585061  0.43656061     0.08600
C92         C  0.32935774  0.32081422  0.28133387     0.05700
C93         C  0.31827615  0.30175337  0.22707952    -0.10500
C94         C  0.27974937  0.26655873  0.22209682     0.03200
C95         C  0.25357331  0.24801417  0.27246142    -0.09000
C96         C  0.26507581  0.26488426  0.32723278     0.05700
C97         C  0.30265541  0.30186051  0.33129612    -0.08400
H98         H  0.33913080  0.31392664  0.18801404     0.11300
H99         H  0.22514001  0.21911407  0.26974098     0.08800
H100        H  0.31070732  0.31680391  0.37298922     0.08600
C101        C  0.23595500  0.24351270  0.37864715    -0.13900
C102        C  0.25344989  0.24027412  0.43280988    -0.29100
H103        H  0.19921473  0.22859952  0.37082916     0.15100
H104        H  0.29012100  0.25531327  0.44073879     0.15700
C105        C  0.22362633  0.23228058  0.14959826    -0.13900
C106        C  0.26871841  0.24925561  0.16351401    -0.29100
H107        H  0.19360642  0.22973808  0.18227478     0.15100
H108        H  0.29858152  0.25174279  0.13059553     0.15700
C109        C  0.38986722  0.38766570  0.24262377    -0.13900
C110        C  0.36878230  0.35994687  0.28769123    -0.29100
H111        H  0.37837773  0.38319034  0.19852178     0.15100
H112        H  0.38051746  0.36662755  0.33144669     0.15700
C113        C  0.12280305  0.11986610  0.52036255    -0.13900
C114        C  0.10450774  0.08912146  0.56439917    -0.29100
H115        H  0.10974288  0.11504928  0.47674005     0.15100
H116        H  0.10416578  0.13291060  0.94652274     0.15700
C117        C  0.12011662  0.86849647  0.99892522    -0.13900
C118        C  0.10053409  0.89768315  0.95494764    -0.29100
H119        H  0.10641758  0.87397021  0.04310613     0.15100
H120        H  0.11653007  0.85807083  0.59098211     0.15700
C121        C  0.36459319  0.61886516  0.21799464    -0.13900
C122        C  0.39521908  0.60392526  0.26114759    -0.29100
H123        H  0.36938296  0.60249767  0.17571943     0.15100
H124        H  0.39195549  0.62122383  0.30287125     0.15700
C125        C  0.23804257  0.73375456  0.08403055    -0.13900
C126        C  0.24080689  0.75031626  0.13821701    -0.29100
H127        H  0.25422196  0.69689953  0.07482591     0.15100
H128        H  0.22430874  0.78686757  0.14802604     0.15700
C129        C  0.23458715  0.75812463  0.36968860    -0.13900
C130        C  0.25138059  0.71256711  0.35298490    -0.29100
H131        H  0.23156446  0.78963270  0.33760455     0.15100
H132        H  0.25460166  0.68110150  0.38509427     0.15700
C133        C  0.88463552  0.10665310  0.00964913    -0.13900
C134        C  0.86407053  0.13552521  0.96698513    -0.29100
H135        H  0.87109945  0.10928387  0.05430865     0.15100
H136        H  0.89549285  0.10295558  0.45484057     0.15700
C137        C  0.63208333  0.36517121  0.22336050    -0.14500
C138        C  0.60091514  0.37891581  0.26705035    -0.29100
H139        H  0.62816355  0.38330851  0.18029002     0.15100
H140        H  0.60297741  0.35955509  0.30958921     0.15700
C141        C  0.75059553  0.23490364  0.13852486    -0.13900
C142        C  0.74944676  0.25416130  0.08324805    -0.29100
H143        H  0.76774913  0.19781309  0.14702806     0.15100
H144        H  0.73297538  0.29152489  0.07489556     0.15700
C145        C  0.74345807  0.26127588  0.35459789    -0.13900
C146        C  0.76176321  0.21546439  0.37241614    -0.29100
H147        H  0.74015386  0.29127261  0.38538031     0.15100
H148        H  0.76499316  0.18541834  0.34170240     0.15700
C149        C  0.87336960  0.86256680  0.48876590    -0.13900
C150        C  0.89442517  0.87469090  0.53850582    -0.29100
H151        H  0.88600935  0.88201569  0.44820994     0.15100
H152        H  0.87302241  0.89494982  0.91565950     0.15700
C153        C  0.62831323  0.62059482  0.23173466    -0.13900
C154        C  0.60626770  0.59406172  0.27702563    -0.29100
H155        H  0.61638762  0.61383338  0.18807239     0.15100
H156        H  0.61786429  0.59855573  0.32109478     0.15700
C157        C  0.73259988  0.72996050  0.35320882    -0.13900
C158        C  0.77709277  0.74875086  0.36722377    -0.29100
H159        H  0.70248677  0.72754100  0.38574855     0.15100
H160        H  0.80727693  0.75185503  0.33482801     0.15700
C161        C  0.74444759  0.73537126  0.08394959    -0.13900
C162        C  0.76328753  0.73162206  0.13753821    -0.29100
H163        H  0.70751864  0.72059425  0.07689060     0.15100
H164        H  0.80038392  0.74607808  0.14433370     0.15700
C165        C  0.66234623  0.66658270  0.73218029     0.05700
C166        C  0.68907714  0.68625031  0.68280453    -0.10500
C167        C  0.72836605  0.72108139  0.68773579     0.03200
C168        C  0.74154540  0.73542973  0.74314144    -0.09000
C169        C  0.71554028  0.71631288  0.79355752     0.05700
C170        C  0.67546525  0.68251821  0.78743928    -0.08400
H171        H  0.67966598  0.67313266  0.64069820     0.11300
H172        H  0.77131795  0.76275778  0.74611361     0.08800
H173        H  0.65452238  0.66916620  0.82606916     0.08600
C174        C  0.83280345  0.82067085  0.98986245     0.05700
C175        C  0.82055193  0.80541968  0.93396381    -0.10500
C176        C  0.78307435  0.76880642  0.92695424     0.03200
C177        C  0.75919112  0.74601412  0.97692528    -0.09000
C178        C  0.77016251  0.76601790  0.53067744     0.05700
C179        C  0.80621535  0.80427280  0.53520299    -0.08400
H180        H  0.84001438  0.82154004  0.89556779     0.11300
H181        H  0.73169125  0.71639504  0.97312981     0.08800
H182        H  0.81094355  0.82061925  0.57678142     0.08600
C183        C  0.65456566  0.31674785  0.73136057     0.05700
C184        C  0.68019696  0.29531405  0.77845724    -0.10500
C185        C  0.71829300  0.25944507  0.77041945     0.03200
C186        C  0.73203928  0.24654068  0.71380097    -0.09000
C187        C  0.70735768  0.26828826  0.66530035     0.05700
C188        C  0.66770881  0.30241438  0.67457560    -0.08400
H189        H  0.67101347  0.30810750  0.82148973     0.11300
H190        H  0.76124590  0.21848286  0.70796729     0.08800
H191        H  0.64766359  0.31764075  0.63752162     0.08600
C192        C  0.82091407  0.17083796  0.97482813     0.05700
C193        C  0.82236117  0.18055867  0.54034623    -0.10500
C194        C  0.78420040  0.21698767  0.53607589     0.03200
C195        C  0.73984395  0.23859171  0.97971108    -0.09000
C196        C  0.75405683  0.21804656  0.92684200     0.05700
C197        C  0.79443459  0.18428449  0.92473635    -0.08400
H198        H  0.83912686  0.17330552  0.58205228     0.11300
H199        H  0.70871803  0.26508235  0.98101006     0.08800
H200        H  0.80490818  0.16745377  0.88406900     0.08600
C201        C  0.31796925  0.65273495  0.73918955     0.05700
C202        C  0.29659834  0.66418080  0.79346704    -0.10500
C203        C  0.25959826  0.70155899  0.79767999     0.03200
C204        C  0.24183068  0.72607307  0.74683530    -0.09000
C205        C  0.26112381  0.71378201  0.69198344     0.05700
C206        C  0.29958922  0.67736910  0.68850958    -0.08400
H207        H  0.30895876  0.64516131  0.83313757     0.11300
H208        H  0.21215385  0.75403640  0.74959975     0.08800
H209        H  0.31635957  0.66907165  0.64664214     0.08600
C210        C  0.15928198  0.82825572  0.99105979     0.05700
C211        C  0.18167717  0.78810528  0.54249299    -0.10500
C212        C  0.21974114  0.75156330  0.53550392     0.03200
C213        C  0.23027624  0.74990634  0.97814252    -0.09000
C214        C  0.21018491  0.77459246  0.92876836     0.05700
C215        C  0.17550180  0.81385218  0.93547637    -0.08400
H216        H  0.16604781  0.79379682  0.58533121     0.11300
H217        H  0.25854436  0.72073888  0.97321954     0.08800
H218        H  0.16064407  0.83166146  0.89647919     0.08600
O219        O  0.04556990  0.02930960  0.60318296    -0.71900
O220        O  0.94596587  0.92728574  0.59109246    -0.71900
O221        O  0.04633934  0.92658494  0.59746690    -0.72000
O222        O  0.94487592  0.03034228  0.59557057    -0.72000
O223        O  0.93992489  0.06137590  0.94515205    -0.72000
O224        O  0.04288531  0.96090464  0.92013311    -0.71900
O225        O  0.94174639  0.96044946  0.92405870    -0.71900
O226        O  0.04068695  0.06220732  0.93711220    -0.72000
Ni227      Ni  0.99540555  0.97816395  0.60028744     1.25400
Ni228      Ni  0.99121174  0.01182138  0.92830970     1.25400
C229        C  0.05901550  0.07036289  0.98621501     0.90300
C230        C  0.92591163  0.93386494  0.96869289     0.90200
C231        C  0.06612230  0.91353048  0.54902630     0.90200
C232        C  0.93213399  0.05121998  0.54669445     0.90400
O233        O  0.44580179  0.53297180  0.80981216    -0.71900
O234        O  0.54598052  0.43233668  0.77542999    -0.71900
O235        O  0.54712555  0.53231384  0.80106193    -0.72000
O236        O  0.44516408  0.43267271  0.78774354    -0.72000
O237        O  0.44096079  0.45306515  0.69284657    -0.72000
O238        O  0.54332221  0.55506076  0.70669343    -0.71900
O239        O  0.54195733  0.45522469  0.68106154    -0.71900
O240        O  0.44209623  0.55308632  0.71479144    -0.72000
Ni241      Ni  0.49628998  0.48187069  0.79690869     1.25400
Ni242      Ni  0.49198286  0.50489643  0.69549377     1.25400
C243        C  0.42671071  0.55872208  0.76712832     0.90300
C244        C  0.56015814  0.42736552  0.72211861     0.90200
C245        C  0.56216489  0.56004707  0.75681058     0.90200
C246        C  0.42591098  0.42654223  0.73849451     0.90400
C247        C  0.16124101  0.15973647  0.52800176     0.05700
C248        C  0.17178683  0.17783771  0.58293750    -0.10500
C249        C  0.20983305  0.21340751  0.58906424     0.03200
C250        C  0.23576726  0.23345987  0.53916134    -0.09000
C251        C  0.22496378  0.21852484  0.98543810     0.05700
C252        C  0.18868857  0.17978523  0.98223910    -0.08400
H253        H  0.15086775  0.16455476  0.62156475     0.11300
H254        H  0.26379245  0.26265132  0.54276813     0.08800
H255        H  0.18129201  0.16438521  0.94073100     0.08600
C256        C  0.32763933  0.32014980  0.77706498     0.05700
C257        C  0.31539147  0.30029781  0.72375768    -0.10500
C258        C  0.27713208  0.26457114  0.72047709     0.03200
C259        C  0.25192960  0.24644158  0.77170718    -0.09000
C260        C  0.26459619  0.26368479  0.82612026     0.05700
C261        C  0.30235702  0.30111226  0.82837135    -0.08400
H262        H  0.33550983  0.31220112  0.68403428     0.11300
H263        H  0.22343956  0.21747546  0.76975867     0.08800
H264        H  0.31167716  0.31629633  0.86951696     0.08600
C265        C  0.23636956  0.24188280  0.87865141    -0.13900
C266        C  0.25302021  0.24137375  0.93332707    -0.29100
H267        H  0.20071506  0.22431468  0.87122527     0.15100
H268        H  0.28854309  0.25910960  0.94096601     0.15700
C269        C  0.22065152  0.22977295  0.64818943    -0.13900
C270        C  0.26589810  0.24615914  0.66245896    -0.29100
H271        H  0.19054516  0.22749580  0.68079361     0.15100
H272        H  0.29598481  0.24794370  0.62982295     0.15700
C273        C  0.38562890  0.38851795  0.73400551    -0.13900
C274        C  0.36754129  0.35962075  0.78039629    -0.29100
H275        H  0.37030333  0.38545125  0.69136281     0.15100
H276        H  0.38218932  0.36550097  0.82303095     0.15700
C277        C  0.12498313  0.11872543  0.03307595    -0.13900
C278        C  0.09793458  0.11005528  0.98663769    -0.29100
H279        H  0.11705696  0.09652188  0.07341419     0.15100
H280        H  0.11774806  0.09188539  0.60808942     0.15700
C281        C  0.12400853  0.85616812  0.49890979    -0.13900
C282        C  0.10458921  0.87321011  0.54908891    -0.29100
H283        H  0.11069502  0.87305615  0.45818278     0.15100
H284        H  0.11351702  0.89448565  0.91036674     0.15700
C285        C  0.35981138  0.61591433  0.73325944    -0.13900
C286        C  0.38574189  0.59492536  0.77784730    -0.29100
H287        H  0.37028689  0.60609901  0.68919119     0.15100
H288        H  0.37712606  0.60335468  0.82259643     0.15700
C289        C  0.24154044  0.72316447  0.58629775    -0.13900
C290        C  0.24141327  0.74171626  0.63992154    -0.29100
H291        H  0.25845323  0.68629663  0.57888119     0.15100
H292        H  0.22512472  0.77889722  0.64702761     0.15700
C293        C  0.22566523  0.76121874  0.86915205    -0.13900
C294        C  0.24077006  0.71409198  0.85627466    -0.29100
H295        H  0.22430386  0.79124861  0.83504144     0.15100
H296        H  0.24200969  0.68403724  0.89034529     0.15700
C297        C  0.89275048  0.09058668  0.54578112    -0.13900
C298        C  0.87822720  0.11412474  0.49564285    -0.29100
H299        H  0.87512486  0.09911665  0.58716452     0.15100
H300        H  0.87779096  0.13080889  0.92261622     0.15700
C301        C  0.61449119  0.35387134  0.74467490    -0.14500
C302        C  0.59812838  0.38946281  0.70621252    -0.29100
H303        H  0.59956276  0.35353300  0.78916071     0.15100
H304        H  0.61302341  0.39163065  0.66181997     0.15700
C305        C  0.72149030  0.25401423  0.60508956    -0.13900
C306        C  0.76878802  0.24182489  0.59030723    -0.29100
H307        H  0.69244241  0.25186349  0.57349072     0.15100
H308        H  0.79739408  0.24526285  0.62224718     0.15700
C309        C  0.74588308  0.23717244  0.82048618    -0.13900
C310        C  0.72556366  0.23309617  0.87477171    -0.29100
H311        H  0.78422081  0.22549692  0.81244707     0.15100
H312        H  0.68701287  0.24412233  0.88246008     0.15700
C313        C  0.87139261  0.86009041  0.99998861    -0.13900
C314        C  0.88781305  0.89469959  0.95896022    -0.29100
H315        H  0.88574907  0.86162807  0.04351045     0.15100
H316        H  0.88382720  0.85497287  0.57945181     0.15700
C317        C  0.62078822  0.62999247  0.72355750    -0.13900
C318        C  0.60214615  0.59752177  0.76574305    -0.29100
H319        H  0.60632284  0.62835301  0.68010798     0.15100
H320        H  0.61727325  0.59699964  0.80888325     0.15700
C321        C  0.72783320  0.73183009  0.85318382    -0.13900
C322        C  0.77120727  0.75396066  0.86698652    -0.29100
H323        H  0.69946920  0.72425168  0.88702315     0.15100
H324        H  0.79959437  0.76213338  0.83337351     0.15700
C325        C  0.74037666  0.74526025  0.58183618    -0.13900
C326        C  0.75757782  0.74244472  0.63624914    -0.29100
H327        H  0.70356894  0.73086402  0.57355364     0.15100
H328        H  0.79457518  0.75681707  0.64391992     0.15700
loop_ 
_geom_bond_atom_site_label_1 
_geom_bond_atom_site_label_2 
_geom_bond_distance 
_geom_bond_site_symmetry_2 
_ccdc_geom_bond_type 
C1            C2   1.405       .  A
C1            C6   1.408       .  A
C1          C153   1.491       .  S
C2            C3   1.407       .  A
C2            H7   1.082       .  S
C3            C4   1.402       .  A
C3          C162   1.484       .  S
C4            C5   1.404       .  A
C4            H8   1.082       .  S
C5            C6   1.401       .  A
C5          C157   1.484       .  S
C6            H9   1.080       .  S
C10          C11   1.404       .  A
C10         C179   1.410       .  A
C10         C149   1.489       .  S
C11          C12   1.403       .  A
C11          H16   1.084       .  S
C12          C13   1.406       .  A
C12         C158   1.485       .  S
C13         C178   1.399       .  A
C13          H17   1.082       .  S
C14          C15   1.406       .  A
C14         C177   1.402   1_554  A
C14         C161   1.486       .  S
C15         C174   1.401   1_554  A
C15          H18   1.082       .  S
C19          C20   1.408       .  A
C19          C24   1.408       .  A
C19         C137   1.501       .  S
C20          C21   1.402       .  A
C20          H25   1.081       .  S
C21          C22   1.411       .  A
C21         C145   1.493       .  S
C22          C23   1.407       .  A
C22          H26   1.082       .  S
C23          C24   1.417       .  A
C23         C141   1.502       .  S
C24          H27   1.081       .  S
C28          C33   1.403       .  A
C28         C193   1.402       .  A
C28         C298   1.488       .  S
C29          C30   1.417       .  A
C29         C192   1.421   1_554  A
C29          H34   1.081       .  S
C30         C195   1.401   1_554  A
C30         C142   1.492       .  S
C31          C32   1.415       .  A
C31         C194   1.409       .  A
C31          H35   1.082       .  S
C32          C33   1.405       .  A
C32         C146   1.491       .  S
C33          H36   1.084       .  S
C37          C38   1.409       .  A
C37          C42   1.412       .  A
C37         C121   1.501       .  S
C38          C39   1.397       .  A
C38          H43   1.081       .  S
C39          C40   1.404       .  A
C39         C130   1.486       .  S
C40          C41   1.403       .  A
C40          H44   1.083       .  S
C41          C42   1.418       .  A
C41         C126   1.495       .  S
C42          H45   1.082       .  S
C46          C51   1.401       .  A
C46         C211   1.406       .  A
C46         C281   1.488       .  S
C47          C48   1.416       .  A
C47         C210   1.416   1_554  A
C47          H52   1.082       .  S
C48         C213   1.400   1_554  A
C48         C125   1.495       .  S
C49          C50   1.408       .  A
C49         C212   1.405       .  A
C49          H53   1.083       .  S
C50          C51   1.399       .  A
C50         C129   1.484       .  S
C51          H54   1.085       .  S
O55         Ni63   1.942   1_445  S
O55         C229   1.288   1_554  A
O56         Ni63   1.944       .  S
O56         C230   1.288   1_554  A
O57         Ni63   1.910   1_455  S
O57          C67   1.278   1_554  A
O58         Ni63   1.915   1_545  S
O58          C68   1.278   1_554  A
O59         Ni64   1.906   1_645  S
O59         C232   1.279       .  A
O60         Ni64   1.908       .  S
O60         C231   1.280       .  A
O61         Ni64   1.924   1_655  S
O61          C66   1.283       .  A
O62         Ni64   1.925   1_545  S
O62          C65   1.283       .  A
Ni63       Ni228   2.388   1_564  S
Ni64       Ni227   2.390   1_455  S
C65         C114   1.472       .  S
C65         O219   1.278       .  A
C66         C150   1.472       .  S
C66         O220   1.278       .  A
C67         C118   1.480       .  S
C67         O224   1.286       .  A
C68         C133   1.485   1_556  S
C68         O223   1.287       .  A
O69         Ni77   1.911       .  S
O69          C79   1.280       .  A
O70         Ni77   1.910       .  S
O70          C80   1.279       .  A
O71         Ni77   1.914       .  S
O71          C81   1.280       .  A
O72         Ni77   1.917       .  S
O72          C82   1.281       .  A
O73         Ni78   1.915       .  S
O73          C82   1.280       .  A
O74         Ni78   1.918       .  S
O74          C81   1.282       .  A
O75         Ni78   1.940       .  S
O75          C80   1.285       .  A
O76         Ni78   1.938       .  S
O76          C79   1.284       .  A
Ni77        Ni78   2.389       .  S
C79         C122   1.478       .  S
C80         C138   1.482       .  S
C81         C154   1.473       .  S
C82         C109   1.473       .  S
C83          C84   1.398       .  A
C83         C252   1.416   1_554  A
C83         C277   1.491       .  S
C84          C85   1.397       .  A
C84          H89   1.085       .  S
C85          C86   1.406       .  A
C85         C105   1.479       .  S
C86         C251   1.403   1_554  A
C86          H90   1.083       .  S
C87          C88   1.409       .  A
C87         C250   1.400       .  A
C87         C102   1.486       .  S
C88         C247   1.405       .  A
C88          H91   1.082       .  S
C92          C93   1.408       .  A
C92          C97   1.407       .  A
C92         C110   1.491       .  S
C93          C94   1.399       .  A
C93          H98   1.080       .  S
C94          C95   1.404       .  A
C94         C106   1.482       .  S
C95          C96   1.400       .  A
C95          H99   1.082       .  S
C96          C97   1.409       .  A
C96         C101   1.485       .  S
C97         H100   1.082       .  S
C101        C102   1.345       .  D
C101        H103   1.085       .  S
C102        H104   1.085       .  S
C105        C106   1.344       .  D
C105        H107   1.085       .  S
C106        H108   1.086       .  S
C109        C110   1.348       .  D
C109        H111   1.082       .  S
C110        H112   1.087       .  S
C113        C247   1.491       .  S
C113        C114   1.345       .  D
C113        H115   1.087       .  S
C114        H280   1.083       .  S
H116        C278   1.085       .  S
C117        C210   1.500       .  S
C117        C118   1.357       .  D
C117        H119   1.087   1_556  S
C118        H284   1.081       .  S
H120        C282   1.082       .  S
C121        C122   1.351       .  D
C121        H123   1.086       .  S
C122        H124   1.083       .  S
C125        C126   1.345       .  D
C125        H127   1.085       .  S
C126        H128   1.085       .  S
C129        C130   1.344       .  D
C129        H131   1.085       .  S
C130        H132   1.085       .  S
C133        C134   1.342   1_554  D
C133        H135   1.085       .  S
C134        C192   1.492       .  S
C134        H300   1.088       .  S
H136        C298   1.087       .  S
C137        C138   1.350       .  D
C137        H139   1.086       .  S
C138        H140   1.084       .  S
C141        C142   1.347       .  D
C141        H143   1.086       .  S
C142        H144   1.084       .  S
C145        C146   1.346       .  D
C145        H147   1.085       .  S
C146        H148   1.085       .  S
C149        C150   1.345       .  D
C149        H151   1.087       .  S
C150        H316   1.083       .  S
H152        C314   1.084       .  S
C153        C154   1.347       .  D
C153        H155   1.087       .  S
C154        H156   1.082       .  S
C157        C158   1.347       .  D
C157        H159   1.085       .  S
C158        H160   1.084       .  S
C161        C162   1.347       .  D
C161        H163   1.085       .  S
C162        H164   1.085       .  S
C165        C166   1.402       .  A
C165        C170   1.413       .  A
C165        C317   1.497       .  S
C166        C167   1.408       .  A
C166        H171   1.082       .  S
C167        C168   1.403       .  A
C167        C326   1.488       .  S
C168        C169   1.407       .  A
C168        H172   1.081       .  S
C169        C170   1.410       .  A
C169        C321   1.497       .  S
C170        H173   1.081       .  S
C174        C175   1.415       .  A
C174        C313   1.496       .  S
C175        C176   1.411       .  A
C175        H180   1.081       .  S
C176        C177   1.407       .  A
C176        C322   1.496       .  S
C177        H181   1.081       .  S
C178        C179   1.405       .  A
C178        C325   1.485       .  S
C179        H182   1.079       .  S
C183        C184   1.396       .  A
C183        C188   1.412       .  A
C183        C301   1.483       .  S
C184        C185   1.401       .  A
C184        H189   1.082       .  S
C185        C186   1.401       .  A
C185        C309   1.484       .  S
C186        C187   1.411       .  A
C186        H190   1.083       .  S
C187        C188   1.406       .  A
C187        C305   1.491       .  S
C188        H191   1.082       .  S
C192        C197   1.403       .  A
C193        C194   1.400       .  A
C193        H198   1.081       .  S
C194        C306   1.483       .  S
C195        C196   1.397       .  A
C195        H199   1.085       .  S
C196        C197   1.398       .  A
C196        C310   1.479       .  S
C197        H200   1.083       .  S
C201        C202   1.404       .  A
C201        C206   1.408       .  A
C201        C285   1.486       .  S
C202        C203   1.397       .  A
C202        H207   1.080       .  S
C203        C204   1.403       .  A
C203        C294   1.477       .  S
C204        C205   1.402       .  A
C204        H208   1.083       .  S
C205        C206   1.407       .  A
C205        C290   1.485       .  S
C206        H209   1.082       .  S
C210        C215   1.407       .  A
C211        C212   1.409       .  A
C211        H216   1.077       .  S
C212        C289   1.489       .  S
C213        C214   1.402       .  A
C213        H217   1.083       .  S
C214        C215   1.396       .  A
C214        C293   1.480       .  S
C215        H218   1.078       .  S
O219       Ni227   1.908   1_445  S
O220       Ni227   1.908       .  S
O221       Ni227   1.921   1_455  S
O221        C231   1.281       .  A
O222       Ni227   1.925   1_545  S
O222        C232   1.283       .  A
O223       Ni228   1.933       .  S
O224       Ni228   1.933   1_465  S
O225       Ni228   1.902   1_565  S
O225        C230   1.276       .  A
O226       Ni228   1.898   1_455  S
O226        C229   1.274       .  A
C229        C278   1.477       .  S
C230        C314   1.481       .  S
C231        C282   1.475       .  S
C232        C297   1.475       .  S
O233       Ni241   1.929       .  S
O233        C243   1.284       .  A
O234       Ni241   1.928       .  S
O234        C244   1.286       .  A
O235       Ni241   1.911       .  S
O235        C245   1.278       .  A
O236       Ni241   1.909       .  S
O236        C246   1.278       .  A
O237       Ni242   1.936       .  S
O237        C246   1.286       .  A
O238       Ni242   1.939       .  S
O238        C245   1.287       .  A
O239       Ni242   1.899       .  S
O239        C244   1.274       .  A
O240       Ni242   1.895       .  S
O240        C243   1.277       .  A
Ni241      Ni242   2.389       .  S
C243        C286   1.473       .  S
C244        C302   1.471       .  S
C245        C318   1.483       .  S
C246        C273   1.482       .  S
C247        C248   1.409       .  A
C248        C249   1.400       .  A
C248        H253   1.080       .  S
C249        C250   1.405       .  A
C249        C269   1.484       .  S
C250        H254   1.082       .  S
C251        C252   1.415       .  A
C251        C266   1.497       .  S
C252        H255   1.079       .  S
C256        C257   1.405       .  A
C256        C261   1.414       .  A
C256        C274   1.498       .  S
C257        C258   1.398       .  A
C257        H262   1.081       .  S
C258        C259   1.404       .  A
C258        C270   1.482       .  S
C259        C260   1.404       .  A
C259        H263   1.083       .  S
C260        C261   1.416       .  A
C260        C265   1.497       .  S
C261        H264   1.082       .  S
C265        C266   1.348       .  D
C265        H267   1.085       .  S
C266        H268   1.085       .  S
C269        C270   1.345       .  D
C269        H271   1.085       .  S
C270        H272   1.085       .  S
C273        C274   1.357       .  D
C273        H275   1.083       .  S
C274        H276   1.087       .  S
C277        C278   1.339   1_554  D
C277        H279   1.087       .  S
C281        C282   1.348       .  D
C281        H283   1.087       .  S
C285        C286   1.352       .  D
C285        H287   1.087       .  S
C286        H288   1.082       .  S
C289        C290   1.349       .  D
C289        H291   1.085       .  S
C290        H292   1.084       .  S
C293        C294   1.343       .  D
C293        H295   1.086       .  S
C294        H296   1.085       .  S
C297        C298   1.350       .  D
C297        H299   1.083       .  S
C301        C302   1.337       .  D
C301        H303   1.088       .  S
C302        H304   1.085       .  S
C305        C306   1.345       .  D
C305        H307   1.086       .  S
C306        H308   1.086       .  S
C309        C310   1.347       .  D
C309        H311   1.085       .  S
C310        H312   1.085       .  S
C313        C314   1.343       .  D
C313        H315   1.087   1_556  S
C317        C318   1.345       .  D
C317        H319   1.087       .  S
C318        H320   1.084       .  S
C321        C322   1.355       .  D
C321        H323   1.084       .  S
C322        H324   1.083       .  S
C325        C326   1.347       .  D
C325        H327   1.084       .  S
C326        H328   1.086       .  S
