geometry optimzed in LAMMPS
_audit_creation_date              2020-11-30 
_audit_creation_method            'lammps2cif' 
_symmetry_space_group_name_H-M    'P1' 
_symmetry_Int_Tables_number       1 
_symmetry_cell_setting            triclinic 
loop_ 
_symmetry_equiv_pos_as_xyz 
  x,y,z 
_cell_length_a                    38.9100985 
_cell_length_b                    39.66321667306966 
_cell_length_c                    33.73846369434897 
_cell_angle_alpha                 89.97148204069953 
_cell_angle_beta                  90.29612489247916 
_cell_angle_gamma                 89.9493088106019 
loop_ 
_atom_site_label 
_atom_site_type_symbol 
_atom_site_fract_x 
_atom_site_fract_y 
_atom_site_fract_z 
_atom_site_charge 
N1          N  0.73584004  0.73842518  0.56089117    -0.26900
N2          N  0.71503279  0.71746413  0.57956497    -0.34700
C3          C  0.71929689  0.72107289  0.61882377     0.01500
C4          C  0.74393880  0.74548252  0.62548277     0.07500
C5          C  0.75386944  0.75607010  0.58805581    -0.05600
H6          H  0.70561365  0.70662547  0.64088667     0.08200
H7          H  0.77317229  0.77470782  0.58100236     0.09400
Cu8        Cu  0.68212862  0.68371771  0.55225317     0.44200
Cu9        Cu  0.73961707  0.74072831  0.49934639     0.42000
Cu10       Cu  0.68530378  0.68001519  0.44710683     0.43900
N11         N  0.65160512  0.65145944  0.51934216    -0.34300
N12         N  0.65281035  0.65006938  0.48026774    -0.28500
C13         C  0.62964359  0.62745440  0.46725178    -0.04600
C14         C  0.61311992  0.61398953  0.49981162     0.07600
C15         C  0.62768934  0.62971720  0.53237458     0.01400
H16         H  0.62494731  0.62155179  0.43639056     0.09100
H17         H  0.62111830  0.62598662  0.56318766     0.08100
N18         N  0.71814416  0.71341723  0.41935617    -0.35700
N19         N  0.73788889  0.73556340  0.43789068    -0.27900
C20         C  0.75542069  0.75337400  0.41066535    -0.03100
C21         C  0.74611938  0.74187457  0.37330009     0.05500
C22         C  0.72248473  0.71656909  0.38006864     0.03600
H23         H  0.77335778  0.77334900  0.41764293     0.08700
H24         H  0.70919007  0.70156235  0.35806160     0.07500
N25         N  0.84743249  0.83862811  0.93867867    -0.26900
N26         N  0.86740779  0.86044170  0.92015261    -0.34700
C27         C  0.86335848  0.85679822  0.88086778     0.01500
C28         C  0.83970675  0.83148560  0.87405908     0.07500
C29         C  0.83014157  0.82041371  0.91141451    -0.05600
H30         H  0.87644642  0.87186952  0.85889715     0.08200
H31         H  0.81158786  0.80102910  0.91836188     0.09400
Cu32       Cu  0.89866420  0.89544926  0.94780399     0.44200
Cu33       Cu  0.84371302  0.83591142  0.00015446     0.42000
Cu34       Cu  0.89502180  0.89874746  0.05302270     0.43900
N35         N  0.92714507  0.92925944  0.98095478    -0.34300
N36         N  0.92581776  0.93052141  0.02003098    -0.28500
C37         C  0.94729626  0.95468121  0.03308436    -0.04600
C38         C  0.96279101  0.96930208  0.00052948     0.07600
C39         C  0.94941977  0.95262063  0.96795931     0.01400
H40         H  0.95137706  0.96102434  0.06393708     0.09100
H41         H  0.95554571  0.95697301  0.93713411     0.08100
N42         N  0.86367881  0.86372904  0.08035908    -0.35700
N43         N  0.84500362  0.84084342  0.06159791    -0.27900
C44         C  0.82811705  0.82220955  0.08861039    -0.03100
C45         C  0.83673526  0.83394277  0.12607487     0.05500
C46         C  0.85929126  0.86023573  0.11959061     0.03600
H47         H  0.81107400  0.80154538  0.08142596     0.08700
H48         H  0.87175448  0.87574984  0.14175375     0.07500
N49         N  0.72620150  0.34125530  0.55953220    -0.26900
N50         N  0.70567815  0.36114554  0.58015583    -0.34700
C51         C  0.71079310  0.35526426  0.61903477     0.01500
C52         C  0.73574311  0.33051245  0.62297650     0.07500
C53         C  0.74488365  0.32228564  0.58464354    -0.05600
H54         H  0.69735766  0.36815730  0.64256576     0.08200
H55         H  0.76371015  0.30380097  0.57553771     0.09400
Cu56       Cu  0.67175994  0.39553870  0.55468392     0.44200
Cu57       Cu  0.72817543  0.33985533  0.49827495     0.42000
Cu58       Cu  0.67063952  0.39595101  0.44756277     0.43900
N59         N  0.64127608  0.42773415  0.52083643    -0.34300
N60         N  0.64111307  0.42769190  0.48165109    -0.28500
C61         C  0.61932047  0.45148218  0.46839690    -0.04600
C62         C  0.60506052  0.46731658  0.50079006     0.07600
C63         C  0.61945553  0.45167386  0.53360315     0.01400
H64         H  0.61439437  0.45690722  0.43745129     0.09100
H65         H  0.61459221  0.45736980  0.56442899     0.08100
N66         N  0.70263050  0.36279503  0.41868974    -0.35700
N67         N  0.72403080  0.34219000  0.43718160    -0.27900
C68         C  0.74129163  0.32409836  0.41010444    -0.03100
C69         C  0.73010764  0.33389687  0.37278538     0.05500
C70         C  0.70559698  0.35845263  0.37940314     0.03600
H71         H  0.76048620  0.30527536  0.41720000     0.08700
H72         H  0.69100249  0.37226740  0.35736529     0.07500
N73         N  0.82935024  0.23261941  0.06377192    -0.26900
N74         N  0.85175627  0.21314704  0.08240438    -0.34700
C75         C  0.84811849  0.21713429  0.12167070     0.01500
C76         C  0.82214932  0.24026662  0.12809128     0.07500
C77         C  0.81079601  0.24959421  0.09070057    -0.05600
H78         H  0.86337457  0.20417547  0.14383402     0.08200
H79         H  0.79067751  0.26742199  0.08344715     0.09400
Cu80       Cu  0.88628576  0.18218322  0.05379838     0.44200
Cu81       Cu  0.82570339  0.23544035  0.00273149     0.42000
Cu82       Cu  0.88610002  0.18416675  0.94666716     0.43900
N83         N  0.91823619  0.15285137  0.01941864    -0.34300
N84         N  0.91831645  0.15339119  0.98023442    -0.28500
C85         C  0.94192470  0.13126772  0.96716885    -0.04600
C86         C  0.95730647  0.11620146  0.99975983     0.07600
C87         C  0.94170518  0.13048439  0.03235971     0.01400
H88         H  0.94748133  0.12654466  0.93627603     0.09100
H89         H  0.94696796  0.12505183  0.06323153     0.08100
N90         N  0.85059080  0.21689158  0.92101598    -0.35700
N91         N  0.82863531  0.23528459  0.94157329    -0.27900
C92         C  0.80929166  0.25360830  0.91646460    -0.03100
C93         C  0.81945526  0.24646947  0.87817985     0.05500
C94         C  0.84572818  0.22306967  0.88216056     0.03600
H95         H  0.78928339  0.27086829  0.92553630     0.08700
H96         H  0.86028137  0.21134668  0.85867469     0.07500
N97         N  0.34565908  0.74996723  0.43932306    -0.26900
N98         N  0.36566891  0.72831510  0.42057267    -0.34700
C99         C  0.36114873  0.73181109  0.38133397     0.01500
C100        C  0.33715394  0.75689738  0.37473951     0.07500
C101        C  0.32782571  0.76792905  0.41221342    -0.05600
H102        H  0.37442597  0.71702773  0.35924286     0.08200
H103        H  0.30940239  0.78741356  0.41933019     0.09400
Cu104      Cu  0.39820849  0.69427561  0.44793016     0.44200
Cu105      Cu  0.34342422  0.75314415  0.50096083     0.42000
Cu106      Cu  0.39536375  0.69017762  0.55331127     0.43900
N107        N  0.42780883  0.66101197  0.48052842    -0.34300
N108        N  0.42664065  0.65936545  0.51959654    -0.28500
C109        C  0.44852196  0.63537235  0.53222122    -0.04600
C110        C  0.46410376  0.62125515  0.49941803     0.07600
C111        C  0.45040018  0.63807683  0.46711384     0.01400
H112        H  0.45267763  0.62865876  0.56296299     0.09100
H113        H  0.45630981  0.63394849  0.43619175     0.08100
N114        N  0.36426192  0.72522260  0.58107269    -0.35700
N115        N  0.34571516  0.74836891  0.56249159    -0.27900
C116        C  0.32946270  0.76734257  0.58969652    -0.03100
C117        C  0.33826174  0.75552359  0.62710328     0.05500
C118        C  0.36030094  0.72881168  0.62037649     0.03600
H119        H  0.31266535  0.78826907  0.58266309     0.08700
H120        H  0.37286855  0.71321964  0.64242661     0.07500
N121        N  0.23995251  0.85612561  0.06120340    -0.26900
N122        N  0.21942905  0.87750579  0.07963624    -0.34700
C123        C  0.22360024  0.87411684  0.11894602     0.01500
C124        C  0.24785820  0.84934220  0.12588859     0.07500
C125        C  0.25775536  0.83843856  0.08856511    -0.05600
H126        H  0.20966941  0.88852013  0.14084502     0.08200
H127        H  0.27640382  0.81909142  0.08171529     0.09400
Cu128      Cu  0.18568056  0.91002836  0.05168331     0.44200
Cu129      Cu  0.24255660  0.85255820  0.99966218     0.42000
Cu130      Cu  0.18500315  0.91015960  0.94617623     0.43900
N131        N  0.15246514  0.93958827  0.01876195    -0.34300
N132        N  0.15207448  0.93964338  0.97961554    -0.28500
C133        C  0.12767803  0.96116845  0.96686700    -0.04600
C134        C  0.11204160  0.97526581  0.99967904     0.07600
C135        C  0.12837136  0.96102807  0.03209096     0.01400
H136        H  0.12180425  0.96618566  0.93604245     0.09100
H137        H  0.12317378  0.96585845  0.06304691     0.08100
N138        N  0.22004464  0.87829130  0.91916411    -0.35700
N139        N  0.24063583  0.85710906  0.93814192    -0.27900
C140        C  0.25951810  0.84017582  0.91133903    -0.03100
C141        C  0.25038295  0.85133487  0.87377326     0.05500
C142        C  0.22534470  0.87548437  0.87999150     0.03600
H143        H  0.27845012  0.82118126  0.91875385     0.08700
H144        H  0.21168103  0.88986335  0.85766440     0.07500
O145        O  0.06887131  0.08249878  0.96691224    -0.72500
O146        O  0.99917626  0.00808396  0.96748491    -0.73500
O147        O  0.99621220  0.07961587  0.96701979    -0.62100
O148        O  0.07197139  0.01104068  0.96713018    -0.70500
O149        O  0.07244216  0.01095996  0.03295918    -0.70100
O150        O  0.99667419  0.07988275  0.03285089    -0.61300
O151        O  0.99944267  0.00832560  0.03331651    -0.73800
O152        O  0.06950428  0.08253961  0.03274772    -0.72600
Cu153      Cu  0.03403928  0.04527832  0.96486644     1.04600
Cu154      Cu  0.03453018  0.04541234  0.03530973     1.04300
C155        C  0.08005646  0.09431159  0.99973102     0.93700
C156        C  0.98831089  0.99651755  0.00046075     0.92800
C157        C  0.98463815  0.09067764  0.99988365     0.85000
C158        C  0.08416874  0.00023085  0.99996930     0.91200
O159        O  0.57337709  0.57821330  0.46676298    -0.72500
O160        O  0.49658377  0.51071490  0.46621462    -0.73500
O161        O  0.50048995  0.58230927  0.46625316    -0.62100
O162        O  0.56934408  0.50673791  0.46716494    -0.70500
O163        O  0.56935094  0.50711797  0.53300265    -0.70100
O164        O  0.50033524  0.58197109  0.53208646    -0.61300
O165        O  0.49674652  0.51064338  0.53205005    -0.73800
O166        O  0.57310686  0.57855570  0.53259010    -0.72600
Cu167      Cu  0.53495792  0.54450871  0.46425034     1.04600
Cu168      Cu  0.53488070  0.54459586  0.53469862     1.04300
C169        C  0.58527548  0.58905116  0.49972625     0.93700
C170        C  0.48474281  0.49990401  0.49908969     0.92800
C171        C  0.48952203  0.59393165  0.49917645     0.85000
C172        C  0.58009760  0.49502264  0.50028517     0.91200
N173        N  0.22554572  0.24809853  0.06097009    -0.26900
N174        N  0.20524224  0.22651927  0.07937617    -0.34700
C175        C  0.20896969  0.23023074  0.11868518     0.01500
C176        C  0.23277258  0.25535479  0.12565673     0.07500
C177        C  0.24285548  0.26616024  0.08835908    -0.05600
H178        H  0.19510260  0.21574428  0.14055892     0.08200
H179        H  0.26108807  0.28587091  0.08154712     0.09400
Cu180      Cu  0.17265023  0.19297821  0.05148107     0.44200
Cu181      Cu  0.22794409  0.25194877  0.99945947     0.42000
Cu182      Cu  0.17012478  0.19456745  0.94618764     0.43900
N183        N  0.14174098  0.16119330  0.01862109    -0.34300
N184        N  0.14067574  0.16178023  0.97950026    -0.28500
C185        C  0.11858954  0.13806474  0.96669558    -0.04600
C186        C  0.10519273  0.12184288  0.99945830     0.07600
C187        C  0.12037604  0.13714364  0.03189927     0.01400
H188        H  0.11281464  0.13297458  0.93587150     0.09100
H189        H  0.11631872  0.13120904  0.06282780     0.08100
N190        N  0.20332190  0.22806294  0.91906397    -0.35700
N191        N  0.22430462  0.24888727  0.93793412    -0.27900
C192        C  0.24225952  0.26658570  0.91097840    -0.03100
C193        C  0.23205993  0.25630746  0.87344578     0.05500
C194        C  0.20738602  0.23189399  0.87982431     0.03600
H195        H  0.26138746  0.28538496  0.91826893     0.08700
H196        H  0.19337394  0.21778320  0.85758560     0.07500
N197        N  0.33056925  0.35544408  0.56195635    -0.26900
N198        N  0.35226175  0.37576108  0.58050028    -0.34700
C199        C  0.34869328  0.37190982  0.61980959     0.01500
C200        C  0.32362142  0.34796850  0.62655027     0.07500
C201        C  0.31265493  0.33802543  0.58917445    -0.05600
H202        H  0.36343247  0.38554599  0.64183555     0.08200
H203        H  0.29307744  0.31959965  0.58216394     0.09400
Cu204      Cu  0.38626519  0.40793372  0.55266420     0.44200
Cu205      Cu  0.32616876  0.35255065  0.50051433     0.42000
Cu206      Cu  0.38504201  0.40770950  0.44730387     0.43900
N207        N  0.41823138  0.43803057  0.51907177    -0.34300
N208        N  0.41788005  0.43792245  0.47993093    -0.28500
C209        C  0.44137614  0.46000240  0.46664054    -0.04600
C210        C  0.45719541  0.47467427  0.49912491     0.07600
C211        C  0.44193895  0.46016573  0.53187196     0.01400
H212        H  0.44654676  0.46493983  0.43569815     0.09100
H213        H  0.44766803  0.46523924  0.56271104     0.08100
N214        N  0.34962106  0.37638174  0.42020791    -0.35700
N215        N  0.32808526  0.35623312  0.43899717    -0.27900
C216        C  0.30914721  0.33937868  0.41195183    -0.03100
C217        C  0.31941151  0.34949508  0.37446925     0.05500
C218        C  0.34503090  0.37295040  0.38098866     0.03600
H219        H  0.28967828  0.32093974  0.41911578     0.08700
H220        H  0.35962322  0.38641481  0.35884792     0.07500
C221        C  0.25574429  0.27869796  0.76625124     0.16400
C222        C  0.25845492  0.28084301  0.72494018    -0.32700
C223        C  0.28128089  0.30469654  0.70943213     0.20800
C224        C  0.30060286  0.32545507  0.73394975     0.03000
C225        C  0.29789859  0.32330590  0.77528856    -0.22400
C226        C  0.27502632  0.29946358  0.79080483     0.12100
S227        S  0.22941649  0.25152201  0.79074192    -0.06100
C228        C  0.24445604  0.26826108  0.83466560    -0.09500
C229        C  0.26868870  0.29358334  0.83015185    -0.26100
S230        S  0.32683755  0.35267597  0.70932900    -0.03300
C231        C  0.31158986  0.33597984  0.66545862    -0.16800
C232        C  0.28743852  0.31062391  0.67008565    -0.14800
H233        H  0.24339408  0.26465763  0.70573034     0.20600
H234        H  0.31293514  0.33951314  0.79449654     0.16600
H235        H  0.28095638  0.30705804  0.85425504     0.19200
H236        H  0.27506530  0.29716060  0.64604552     0.12500
C237        C  0.25219992  0.28028429  0.23344907     0.16400
C238        C  0.25308810  0.28372915  0.27479911    -0.32700
C239        C  0.27651078  0.30686980  0.29092604     0.20800
C240        C  0.29798226  0.32575336  0.26690517     0.03000
C241        C  0.29702750  0.32237129  0.22559815    -0.22400
C242        C  0.27367828  0.29921315  0.20948893     0.12100
S243        S  0.22584300  0.25347044  0.20816400    -0.06100
C244        C  0.24385052  0.26796878  0.16477534    -0.09500
C245        C  0.26901033  0.29228829  0.17003035    -0.26100
S246        S  0.32484773  0.35212863  0.29200581    -0.03300
C247        C  0.30718423  0.33754395  0.33550424    -0.16800
C248        C  0.28161556  0.31356421  0.33041573    -0.14800
H249        H  0.23637410  0.26892852  0.29355862     0.20600
H250        H  0.31384690  0.33706574  0.20684774     0.16600
H251        H  0.28316500  0.30426880  0.14635502     0.19200
H252        H  0.26772685  0.30146017  0.35421509     0.12500
C253        C  0.31374019  0.77899587  0.26707109     0.16400
C254        C  0.31118738  0.78099080  0.22569530    -0.32700
C255        C  0.28905208  0.80537952  0.20965741     0.20800
C256        C  0.27022489  0.82676640  0.23375294     0.03000
C257        C  0.27274533  0.82474493  0.27515455    -0.22400
C258        C  0.29495679  0.80039460  0.29120026     0.12100
S259        S  0.33938294  0.75134581  0.29214168    -0.06100
C260        C  0.32479260  0.76878060  0.33574473    -0.09500
C261        C  0.30114938  0.79463756  0.33070185    -0.26100
S262        S  0.24481991  0.85458691  0.20856058    -0.03300
C263        C  0.25970758  0.83728042  0.16500659    -0.16800
C264        C  0.28316282  0.81129544  0.17015577    -0.14800
H265        H  0.32588583  0.76431965  0.20683449     0.20600
H266        H  0.25810097  0.84146269  0.29401323     0.16600
H267        H  0.28925426  0.80860356  0.35454011     0.19200
H268        H  0.29521298  0.79738739  0.14637569     0.12500
C269        C  0.27513628  0.82939852  0.76670542     0.16400
C270        C  0.27778745  0.82705927  0.72539221    -0.32700
C271        C  0.29925673  0.80194617  0.70995560     0.20800
C272        C  0.31743093  0.78023302  0.73454973     0.03000
C273        C  0.31493792  0.78269829  0.77589797    -0.22400
C274        C  0.29331414  0.80771844  0.79133990     0.12100
S275        S  0.24969930  0.85750092  0.79109213    -0.06100
C276        C  0.26348500  0.83981729  0.83508466    -0.09500
C277        C  0.28684635  0.81365216  0.83066265    -0.26100
S278        S  0.34174665  0.75125311  0.70998669    -0.03300
C279        C  0.32729482  0.76853952  0.66602753    -0.16800
C280        C  0.30482065  0.79539492  0.67060868    -0.14800
H281        H  0.26348780  0.84388019  0.70611780     0.20600
H282        H  0.32898943  0.76567408  0.79516568     0.16600
H283        H  0.29811254  0.79936851  0.85479997     0.19200
H284        H  0.29305513  0.80935626  0.64652638     0.12500
C285        C  0.75194913  0.30924777  0.26599940     0.16400
C286        C  0.75410333  0.30603449  0.22476662    -0.32700
C287        C  0.77801216  0.28295037  0.20979001     0.20800
C288        C  0.79880459  0.26389397  0.23469689     0.03000
C289        C  0.79658359  0.26704428  0.27590106    -0.22400
C290        C  0.77272686  0.29014484  0.29087109     0.12100
S291        S  0.72484860  0.33600518  0.29005553    -0.06100
C292        C  0.74170507  0.32126889  0.33412036    -0.09500
C293        C  0.76695449  0.29690389  0.33000692    -0.26100
S294        S  0.82634952  0.23753454  0.21076783    -0.03300
C295        C  0.80971172  0.25232939  0.16665308    -0.16800
C296        C  0.78411721  0.27639231  0.17065131    -0.14800
H297        H  0.73795917  0.32093540  0.20523772     0.20600
H298        H  0.81281557  0.25223190  0.29542696     0.16600
H299        H  0.78048947  0.28480544  0.35425163     0.17600
H300        H  0.77076770  0.28858493  0.14633438     0.12500
C301        C  0.77376981  0.29068422  0.79137129     0.16400
C302        C  0.75273716  0.31061444  0.76698300    -0.32700
C303        C  0.75692064  0.30765481  0.72589011     0.20800
C304        C  0.78090195  0.28578529  0.70978436     0.03000
C305        C  0.80192941  0.26585136  0.73417184    -0.22400
C306        C  0.79780145  0.26886849  0.77526494     0.12100
S307        S  0.77268317  0.29060100  0.84188605    -0.06100
C308        C  0.80499962  0.26084243  0.84139257    -0.09500
C309        C  0.81584568  0.25168656  0.80381941    -0.26100
S310        S  0.78206572  0.28593974  0.65927428    -0.03300
C311        C  0.74995515  0.31591022  0.65976621    -0.16800
C312        C  0.73905876  0.32502300  0.69733671    -0.14800
H313        H  0.73398637  0.32770371  0.77948254     0.20600
H314        H  0.82070827  0.24879074  0.72167330     0.16600
H315        H  0.83576726  0.23340532  0.79761998     0.19200
H316        H  0.71922174  0.34339273  0.70353400     0.12500
C317        C  0.81389594  0.81200400  0.76648866     0.16400
C318        C  0.80965918  0.81160035  0.72521866    -0.32700
C319        C  0.78761644  0.78723096  0.70906540     0.20800
C320        C  0.77055975  0.76430979  0.73296778     0.03000
C321        C  0.77483937  0.76467787  0.77423394    -0.22400
C322        C  0.79685887  0.78906733  0.79038790     0.12100
S323        S  0.83939539  0.83961487  0.79171374    -0.06100
C324        C  0.82699678  0.82014685  0.83504136    -0.09500
C325        C  0.80424504  0.79361350  0.82981459    -0.26100
S326        S  0.74478688  0.73692456  0.70777087    -0.03300
C327        C  0.75709362  0.75646972  0.66445106    -0.16800
C328        C  0.78005780  0.78282749  0.66965483    -0.14800
H329        H  0.82292320  0.82952731  0.70653630     0.20600
H330        H  0.76151880  0.74679726  0.79292422     0.16600
H331        H  0.79366220  0.77845363  0.85347896     0.19200
H332        H  0.79054913  0.79805699  0.64599668     0.12500
C333        C  0.81471197  0.81022922  0.23336281     0.16400
C334        C  0.81249252  0.80770335  0.27469183    -0.32700
C335        C  0.78897647  0.78453307  0.29026954     0.20800
C336        C  0.76860874  0.76471599  0.26579506     0.03000
C337        C  0.77085854  0.76720891  0.22443927    -0.22400
C338        C  0.79437605  0.79040634  0.20885601     0.12100
S339        S  0.84139342  0.83702252  0.20878923    -0.06100
C340        C  0.82504737  0.82141675  0.16489988    -0.09500
C341        C  0.80024228  0.79664685  0.16948184    -0.26100
S342        S  0.74172901  0.73815845  0.29049298    -0.03300
C343        C  0.75807119  0.75389454  0.33434706    -0.16800
C344        C  0.78303510  0.77847521  0.32964728    -0.14800
H345        H  0.82834998  0.82317836  0.29386427     0.20600
H346        H  0.75495474  0.75178041  0.20526649     0.16600
H347        H  0.78702234  0.78402673  0.14540045     0.19200
H348        H  0.79622289  0.79121339  0.35366402     0.12500
loop_ 
_geom_bond_atom_site_label_1 
_geom_bond_atom_site_label_2 
_geom_bond_distance 
_geom_bond_site_symmetry_2 
_ccdc_geom_bond_type 
N1            N2   1.323       .  A
N1            C5   1.348       .  A
N1           Cu9   2.084       .  S
N2            C3   1.342       .  A
N2           Cu8   2.067       .  S
C3            C4   1.381       .  A
C3            H6   1.082       .  S
C4            C5   1.387       .  A
C4          C327   1.475       .  S
C5            H7   1.082       .  S
Cu8          N11   2.067       .  S
Cu9          N19   2.084       .  S
Cu10         N12   2.068       .  S
Cu10         N18   2.069       .  S
N11          N12   1.321       .  A
N11          C15   1.345       .  A
N12          C13   1.345       .  A
C13          C14   1.383       .  A
C13          H16   1.082       .  S
C14          C15   1.383       .  A
C14         C169   1.468       .  S
C15          H17   1.082       .  S
N18          N19   1.323       .  A
N18          C22   1.343       .  A
N19          C20   1.347       .  A
C20          C21   1.387       .  A
C20          H23   1.082       .  S
C21          C22   1.382       .  A
C21         C343   1.475       .  S
C22          H24   1.082       .  S
N25          N26   1.323       .  A
N25          C29   1.348       .  A
N25         Cu33   2.083   1_556  S
N26          C27   1.342       .  A
N26         Cu32   2.066       .  S
C27          C28   1.381       .  A
C27          H30   1.082       .  S
C28          C29   1.387       .  A
C28         C324   1.474       .  S
C29          H31   1.082       .  S
Cu32         N35   2.066       .  S
Cu33         N43   2.083       .  S
Cu34         N36   2.068       .  S
Cu34         N42   2.069       .  S
N35          N36   1.321   1_556  A
N35          C39   1.344       .  A
N36          C37   1.345       .  A
C37          C38   1.383       .  A
C37          H40   1.082       .  S
C38          C39   1.383   1_554  A
C38         C156   1.467       .  S
C39          H41   1.082       .  S
N42          N43   1.323       .  A
N42          C46   1.343       .  A
N43          C44   1.347       .  A
C44          C45   1.387       .  A
C44          H47   1.082       .  S
C45          C46   1.382       .  A
C45         C340   1.475       .  S
C46          H48   1.082       .  S
N49          N50   1.323       .  A
N49          C53   1.343       .  A
N49         Cu57   2.069       .  S
N50          C51   1.346       .  A
N50         Cu56   2.080       .  S
C51          C52   1.386       .  A
C51          H54   1.081       .  S
C52          C53   1.382       .  A
C52         C311   1.474       .  S
C53          H55   1.082       .  S
Cu56         N59   2.079       .  S
Cu57         N67   2.069       .  S
Cu58         N60   2.059       .  S
Cu58         N66   2.059       .  S
N59          N60   1.322       .  A
N59          C63   1.346       .  A
N60          C61   1.343       .  A
C61          C62   1.380       .  A
C61          H64   1.082       .  S
C62          C63   1.384       .  A
C62         C172   1.466       .  S
C63          H65   1.082       .  S
N66          N67   1.320       .  A
N66          C70   1.342       .  A
N67          C68   1.344       .  A
C68          C69   1.385       .  A
C68          H71   1.081       .  S
C69          C70   1.382       .  A
C69         C292   1.471       .  S
C70          H72   1.082       .  S
N73          N74   1.321       .  A
N73          C77   1.344       .  A
N73         Cu81   2.067       .  S
N74          C75   1.342       .  A
N74         Cu80   2.063       .  S
C75          C76   1.382       .  A
C75          H78   1.082       .  S
C76          C77   1.385       .  A
C76         C295   1.471       .  S
C77          H79   1.081       .  S
Cu80         N83   2.064       .  S
Cu81         N91   2.067   1_554  S
Cu82         N84   2.080       .  S
Cu82         N90   2.080       .  S
N83          N84   1.322   1_554  A
N83          C87   1.344       .  A
N84          C85   1.346       .  A
C85          C86   1.384       .  A
C85          H88   1.082       .  S
C86          C87   1.381   1_556  A
C86         C157   1.468       .  S
C87          H89   1.082       .  S
N90          N91   1.322       .  A
N90          C94   1.346       .  A
N91          C92   1.343       .  A
C92          C93   1.382       .  A
C92          H95   1.082       .  S
C93          C94   1.386       .  A
C93         C308   1.474       .  S
C94          H96   1.081       .  S
N97          N98   1.322       .  A
N97         C101   1.348       .  A
N97        Cu105   2.086       .  S
N98          C99   1.342       .  A
N98        Cu104   2.064       .  S
C99         C100   1.381       .  A
C99         H102   1.082       .  S
C100        C101   1.388       .  A
C100        C260   1.475       .  S
C101        H103   1.082       .  S
Cu104       N107   2.064       .  S
Cu105       N115   2.086       .  S
Cu106       N108   2.069       .  S
Cu106       N114   2.070       .  S
N107        N108   1.321       .  A
N107        C111   1.345       .  A
N108        C109   1.344       .  A
C109        C110   1.383       .  A
C109        H112   1.082       .  S
C110        C111   1.382       .  A
C110        C171   1.467       .  S
C111        H113   1.082       .  S
N114        N115   1.323       .  A
N114        C118   1.343       .  A
N115        C116   1.347       .  A
C116        C117   1.387       .  A
C116        H119   1.082       .  S
C117        C118   1.382       .  A
C117        C279   1.476       .  S
C118        H120   1.082       .  S
N121        N122   1.322       .  A
N121        C125   1.348       .  A
N121       Cu129   2.084   1_554  S
N122        C123   1.342       .  A
N122       Cu128   2.064       .  S
C123        C124   1.381       .  A
C123        H126   1.082       .  S
C124        C125   1.388       .  A
C124        C263   1.475       .  S
C125        H127   1.082       .  S
Cu128       N131   2.064       .  S
Cu129       N139   2.084       .  S
Cu130       N132   2.073       .  S
Cu130       N138   2.073       .  S
N131        N132   1.321   1_554  A
N131        C135   1.344       .  A
N132        C133   1.345       .  A
C133        C134   1.384       .  A
C133        H136   1.082       .  S
C134        C135   1.382   1_556  A
C134        C158   1.468   1_565  S
C135        H137   1.082       .  S
N138        N139   1.323       .  A
N138        C142   1.343       .  A
N139        C140   1.347       .  A
C140        C141   1.387       .  A
C140        H143   1.082       .  S
C141        C142   1.382       .  A
C141        C276   1.476       .  S
C142        H144   1.082       .  S
O145       Cu153   2.006       .  S
O145        C155   1.277       .  A
O146       Cu153   2.007   1_655  S
O146        C156   1.277   1_546  A
O147       Cu153   2.006   1_655  S
O147        C157   1.277       .  A
O148       Cu153   2.006       .  S
O148        C158   1.277       .  A
O149       Cu154   2.012       .  S
O149        C158   1.278   1_554  A
O150       Cu154   2.010   1_655  S
O150        C157   1.278   1_554  A
O151       Cu154   2.009   1_655  S
O151        C156   1.277   1_545  A
O152       Cu154   2.008       .  S
O152        C155   1.277   1_554  A
Cu153      Cu154   2.377   1_556  S
C155        C186   1.467       .  S
O159       Cu167   2.008       .  S
O159        C169   1.277       .  A
O160       Cu167   2.009       .  S
O160        C170   1.277       .  A
O161       Cu167   2.012       .  S
O161        C171   1.278       .  A
O162       Cu167   2.010       .  S
O162        C172   1.278       .  A
O163       Cu168   2.002       .  S
O163        C172   1.276       .  A
O164       Cu168   2.002       .  S
O164        C171   1.276       .  A
O165       Cu168   2.006       .  S
O165        C170   1.277       .  A
O166       Cu168   2.009       .  S
O166        C169   1.278       .  A
Cu167      Cu168   2.377       .  S
C170        C210   1.467       .  S
N173        N174   1.322       .  A
N173        C177   1.348       .  A
N173       Cu181   2.083   1_554  S
N174        C175   1.342       .  A
N174       Cu180   2.063       .  S
C175        C176   1.380       .  A
C175        H178   1.082       .  S
C176        C177   1.388       .  A
C176        C244   1.474       .  S
C177        H179   1.082       .  S
Cu180       N183   2.063       .  S
Cu181       N191   2.083       .  S
Cu182       N184   2.069       .  S
Cu182       N190   2.070       .  S
N183        N184   1.321   1_554  A
N183        C187   1.344       .  A
N184        C185   1.345       .  A
C185        C186   1.383       .  A
C185        H188   1.082       .  S
C186        C187   1.382   1_556  A
C187        H189   1.082       .  S
N190        N191   1.323       .  A
N190        C194   1.343       .  A
N191        C192   1.347       .  A
C192        C193   1.387       .  A
C192        H195   1.082       .  S
C193        C194   1.382       .  A
C193        C228   1.475       .  S
C194        H196   1.082       .  S
N197        N198   1.323       .  A
N197        C201   1.347       .  A
N197       Cu205   2.082       .  S
N198        C199   1.343       .  A
N198       Cu204   2.068       .  S
C199        C200   1.382       .  A
C199        H202   1.082       .  S
C200        C201   1.387       .  A
C200        C231   1.475       .  S
C201        H203   1.081       .  S
Cu204       N207   2.067       .  S
Cu205       N215   2.082       .  S
Cu206       N208   2.066       .  S
Cu206       N214   2.066       .  S
N207        N208   1.321       .  A
N207        C211   1.344       .  A
N208        C209   1.345       .  A
C209        C210   1.383       .  A
C209        H212   1.082       .  S
C210        C211   1.382       .  A
C211        H213   1.082       .  S
N214        N215   1.322       .  A
N214        C218   1.341       .  A
N215        C216   1.348       .  A
C216        C217   1.387       .  A
C216        H219   1.082       .  S
C217        C218   1.381       .  A
C217        C247   1.474       .  S
C218        H220   1.082       .  S
C221        C226   1.387       .  A
C221        C222   1.401       .  A
C221        S227   1.704       .  A
C222        C223   1.401       .  A
C222        H233   1.083       .  S
C223        C232   1.370       .  A
C223        C224   1.387       .  A
C224        C225   1.402       .  A
C224        S230   1.705       .  A
C225        C226   1.402       .  A
C225        H234   1.083       .  S
C226        C229   1.371       .  A
S227        C228   1.724       .  A
C228        C229   1.387       .  A
C229        H235   1.082       .  S
S230        C231   1.724       .  A
C231        C232   1.386       .  A
C232        H236   1.082       .  S
C237        C242   1.387       .  A
C237        C238   1.402       .  A
C237        S243   1.704       .  A
C238        C239   1.402       .  A
C238        H249   1.083       .  S
C239        C248   1.372       .  A
C239        C240   1.387       .  A
C240        C241   1.400       .  A
C240        S246   1.702       .  A
C241        C242   1.400       .  A
C241        H250   1.083       .  S
C242        C245   1.371       .  A
S243        C244   1.725       .  A
C244        C245   1.386       .  A
C245        H251   1.082       .  S
S246        C247   1.724       .  A
C247        C248   1.387       .  A
C248        H252   1.083       .  S
C253        C258   1.387       .  A
C253        C254   1.401       .  A
C253        S259   1.704       .  A
C254        C255   1.401       .  A
C254        H265   1.083       .  S
C255        C264   1.371       .  A
C255        C256   1.387       .  A
C256        C257   1.402       .  A
C256        S262   1.705       .  A
C257        C258   1.402       .  A
C257        H266   1.083       .  S
C258        C261   1.372       .  A
S259        C260   1.724       .  A
C260        C261   1.387       .  A
C261        H267   1.082       .  S
S262        C263   1.725       .  A
C263        C264   1.386       .  A
C264        H268   1.082       .  S
C269        C274   1.387       .  A
C269        C270   1.401       .  A
C269        S275   1.705       .  A
C270        C271   1.402       .  A
C270        H281   1.083       .  S
C271        C280   1.371       .  A
C271        C272   1.387       .  A
C272        C273   1.402       .  A
C272        S278   1.706       .  A
C273        C274   1.403       .  A
C273        H282   1.083       .  S
C274        C277   1.372       .  A
S275        C276   1.724       .  A
C276        C277   1.388       .  A
C277        H283   1.082       .  S
S278        C279   1.725       .  A
C279        C280   1.387       .  A
C280        H284   1.082       .  S
C285        C290   1.387       .  A
C285        C286   1.400       .  A
C285        S291   1.704       .  A
C286        C287   1.401       .  A
C286        H297   1.083       .  S
C287        C296   1.368       .  A
C287        C288   1.387       .  A
C288        C289   1.399       .  A
C288        S294   1.703       .  A
C289        C290   1.400       .  A
C289        H298   1.083       .  S
C290        C293   1.367       .  A
S291        C292   1.723       .  A
C292        C293   1.385       .  A
C293        H299   1.082       .  S
S294        C295   1.723       .  A
C295        C296   1.386       .  A
C296        H300   1.082       .  S
C301        C306   1.387       .  A
C301        C302   1.401       .  A
C301        S307   1.705       .  A
C302        C303   1.402       .  A
C302        H313   1.083       .  S
C303        C312   1.370       .  A
C303        C304   1.387       .  A
C304        C305   1.401       .  A
C304        S310   1.705       .  A
C305        C306   1.402       .  A
C305        H314   1.083       .  S
C306        C309   1.370       .  A
S307        C308   1.724       .  A
C308        C309   1.387       .  A
C309        H315   1.082       .  S
S310        C311   1.724       .  A
C311        C312   1.387       .  A
C312        H316   1.082       .  S
C317        C322   1.387       .  A
C317        C318   1.401       .  A
C317        S323   1.704       .  A
C318        C319   1.401       .  A
C318        H329   1.083       .  S
C319        C328   1.372       .  A
C319        C320   1.387       .  A
C320        C321   1.401       .  A
C320        S326   1.704       .  A
C321        C322   1.401       .  A
C321        H330   1.083       .  S
C322        C325   1.371       .  A
S323        C324   1.724       .  A
C324        C325   1.387       .  A
C325        H331   1.083       .  S
S326        C327   1.724       .  A
C327        C328   1.386       .  A
C328        H332   1.083       .  S
C333        C338   1.387       .  A
C333        C334   1.401       .  A
C333        S339   1.704       .  A
C334        C335   1.401       .  A
C334        H345   1.083       .  S
C335        C344   1.371       .  A
C335        C336   1.387       .  A
C336        C337   1.402       .  A
C336        S342   1.705       .  A
C337        C338   1.402       .  A
C337        H346   1.083       .  S
C338        C341   1.371       .  A
S339        C340   1.724       .  A
C340        C341   1.387       .  A
C341        H347   1.082       .  S
S342        C343   1.725       .  A
C343        C344   1.386       .  A
C344        H348   1.082       .  S
