geometry optimzed in LAMMPS
_audit_creation_date              2020-11-30 
_audit_creation_method            'lammps2cif' 
_symmetry_space_group_name_H-M    'P1' 
_symmetry_Int_Tables_number       1 
_symmetry_cell_setting            triclinic 
loop_ 
_symmetry_equiv_pos_as_xyz 
  x,y,z 
_cell_length_a                    24.20154976 
_cell_length_b                    24.230434344211854 
_cell_length_c                    30.616448590346792 
_cell_angle_alpha                 89.99297112874855 
_cell_angle_beta                  89.98774770454646 
_cell_angle_gamma                 89.99551571020999 
loop_ 
_atom_site_label 
_atom_site_type_symbol 
_atom_site_fract_x 
_atom_site_fract_y 
_atom_site_fract_z 
_atom_site_charge 
C1          C  0.78898424  0.87169275  0.85507686     0.88500
C2          C  0.78498396  0.86506907  0.90481127    -0.51700
C3          C  0.83374775  0.85011060  0.92371665     0.11400
C4          C  0.88181309  0.84297954  0.89139115     0.22400
C5          C  0.83556509  0.91346391  0.84773188    -0.52500
C6          C  0.88408863  0.89855652  0.86698883     0.11500
C7          C  0.81147166  0.81647353  0.83840780    -0.52000
C8          C  0.85997394  0.80123297  0.85756404     0.12100
H9          H  0.74730246  0.87193928  0.92335795     0.16600
H10         H  0.92140732  0.83078503  0.90705044     0.02400
H11         H  0.83026238  0.95199614  0.83005423     0.16900
H12         H  0.79023533  0.79103189  0.81447606     0.16700
C13         C  0.11360720  0.02771163  0.85897693     0.88500
C14         C  0.11679372  0.03241868  0.90888904    -0.51700
C15         C  0.06783425  0.04717991  0.92761754     0.11400
C16         C  0.02041951  0.05601195  0.89495892     0.22400
C17         C  0.06670606  0.98677001  0.85016520    -0.52500
C18         C  0.01800337  0.00144680  0.86922403     0.11500
C19         C  0.09198001  0.08377245  0.84336094    -0.52000
C20         C  0.04324805  0.09873456  0.86233003     0.12100
H21         H  0.15406165  0.02441289  0.92766460     0.16600
H22         H  0.98065185  0.06801289  0.91044970     0.02400
H23         H  0.07189509  0.94889784  0.83160113     0.16900
H24         H  0.11371872  0.10973651  0.82006313     0.16700
C25         C  0.28885336  0.52171117  0.62607539     0.88500
C26         C  0.28528623  0.52781386  0.57627966    -0.51700
C27         C  0.33416164  0.54277910  0.55754335     0.11400
C28         C  0.38190173  0.55042757  0.59007850     0.22400
C29         C  0.33555392  0.48021521  0.63394063    -0.52500
C30         C  0.38419214  0.49511954  0.61484862     0.11500
C31         C  0.31096020  0.57718696  0.64251268    -0.52000
C32         C  0.35958321  0.59241145  0.62352513     0.12100
H33         H  0.24779994  0.52061410  0.55757413     0.16600
H34         H  0.42159032  0.56262559  0.57455876     0.02400
H35         H  0.33025526  0.44184638  0.65183702     0.16900
H36         H  0.28943979  0.60275571  0.66620642     0.16700
C37         C  0.61343468  0.36548176  0.62514151     0.88500
C38         C  0.61724852  0.36032675  0.57528582    -0.51700
C39         C  0.56846960  0.34566455  0.55624740     0.11400
C40         C  0.52058470  0.33735462  0.58858265     0.22400
C41         C  0.56664263  0.40674975  0.63336698    -0.52500
C42         C  0.51811398  0.39216135  0.61400978     0.11500
C43         C  0.59132311  0.30966652  0.64088931    -0.52000
C44         C  0.54277336  0.29477545  0.62161145     0.12100
H45         H  0.65479691  0.36798098  0.55676478     0.16600
H46         H  0.48096535  0.32542843  0.57284098     0.02400
H47         H  0.57178741  0.44474972  0.65177510     0.16900
H48         H  0.61267129  0.28375956  0.66444868     0.16700
In49       In  0.94980964  0.44808518  0.76099107     1.36900
C50         C  0.96715827  0.35055634  0.79884971     0.79600
O51         O  0.85897805  0.42920170  0.76318245    -0.58800
O52         O  0.89670065  0.44132660  0.70118647    -0.49800
C53         C  0.93289541  0.54729828  0.79628034     0.72300
O54         O  0.94008116  0.50471989  0.81928315    -0.44600
C55         C  0.04650008  0.46307273  0.72203615     0.77000
O56         O  0.95906681  0.39388296  0.82076378    -0.56500
O57         O  0.00313413  0.45201276  0.70110280    -0.46600
O58         O  0.96645228  0.35706781  0.75810097    -0.52900
C59         C  0.85340761  0.43052943  0.72230283     0.87100
O60         O  0.93413744  0.53919983  0.75571083    -0.54800
O61         O  0.04076407  0.46629063  0.76284220    -0.58100
In62       In  0.44904340  0.94481854  0.72157307     1.36900
C63         C  0.46608458  0.04266907  0.68411460     0.79600
O64         O  0.35834304  0.96449502  0.72027956    -0.58800
O65         O  0.39655964  0.95057536  0.78183583    -0.49800
C66         C  0.43192091  0.84600880  0.68569208     0.72300
O67         O  0.43965658  0.88871247  0.66295752    -0.44600
C68         C  0.54618863  0.92957790  0.75969246     0.77000
O69         O  0.45713273  0.99964725  0.66203296    -0.56500
O70         O  0.50306013  0.94039603  0.78101959    -0.46600
O71         O  0.46629604  0.03569946  0.72482261    -0.52900
C72         C  0.35315710  0.96226887  0.76117237     0.87100
O73         O  0.43260889  0.85378621  0.72630687    -0.54800
O74         O  0.53996647  0.92663031  0.71892676    -0.58100
C75         C  0.86978780  0.78340887  0.12379353     0.88500
C76         C  0.86480585  0.78084705  0.07388266    -0.51700
C77         C  0.85026933  0.83005433  0.05556476     0.11400
C78         C  0.84194485  0.87709160  0.08858571     0.22400
C79         C  0.91115688  0.82986460  0.13283465    -0.52500
C80         C  0.89665596  0.87883480  0.11420305     0.11500
C81         C  0.81388247  0.80524019  0.13974178    -0.52000
C82         C  0.79919235  0.85424347  0.12116371     0.12100
H83         H  0.87237098  0.74377048  0.05481299     0.16600
H84         H  0.83012994  0.91707333  0.07342575     0.02400
H85         H  0.94909293  0.82423287  0.15129657     0.16900
H86         H  0.78781307  0.78344196  0.16294060     0.16700
C87         C  0.02687425  0.10752071  0.12830438     0.88500
C88         C  0.03337771  0.11151243  0.07855748    -0.51700
C89         C  0.04798988  0.06274027  0.05958247     0.11400
C90         C  0.05484733  0.01464689  0.09185068     0.22400
C91         C  0.98477304  0.06124894  0.13572382    -0.52500
C92         C  0.99936305  0.01270048  0.11643005     0.11500
C93         C  0.08207577  0.08463473  0.14483811    -0.52000
C94         C  0.09684617  0.03606702  0.12560262     0.12100
H95         H  0.02678908  0.14923910  0.06005675     0.16600
H96         H  0.06673344  0.97502287  0.07615001     0.02400
H97         H  0.94636330  0.06671874  0.15359503     0.16900
H98         H  0.10775288  0.10555584  0.16879037     0.16700
C99         C  0.53026559  0.28452336  0.35533517     0.88500
C100        C  0.53618196  0.28063605  0.40513325    -0.51700
C101        C  0.55058540  0.32944830  0.42414561     0.11400
C102        C  0.55786811  0.37746422  0.39185197     0.22400
C103        C  0.48829692  0.33083017  0.34756024    -0.52500
C104        C  0.50268740  0.37941524  0.36687071     0.11500
C105        C  0.58567585  0.30732340  0.33915232    -0.52000
C106        C  0.60024593  0.35593110  0.35842152     0.12100
H107        H  0.52930646  0.24296795  0.42364040     0.16600
H108        H  0.56959175  0.41711997  0.40757095     0.02400
H109        H  0.45010996  0.32536719  0.32939558     0.16900
H110        H  0.61158194  0.28636589  0.31536341     0.16700
C111        C  0.37288629  0.60867448  0.35766984     0.88500
C112        C  0.36699278  0.61133320  0.40751640    -0.51700
C113        C  0.35232377  0.56212322  0.42575860     0.11400
C114        C  0.34477333  0.51497086  0.39273137     0.22400
C115        C  0.41461349  0.56234488  0.34915849    -0.52500
C116        C  0.39995315  0.51335400  0.36771931     0.11500
C117        C  0.31736401  0.58657559  0.34115799    -0.52000
C118        C  0.30252351  0.53757588  0.35965599     0.12100
H119        H  0.37406785  0.64848933  0.42660955     0.16600
H120        H  0.33282888  0.47499270  0.40783623     0.02400
H121        H  0.45284530  0.56807068  0.33110319     0.16900
H122        H  0.29158216  0.60825892  0.31770107     0.16700
In123      In  0.44929801  0.94636698  0.22190654     1.36900
C124        C  0.34988898  0.96048571  0.18627544     0.79600
O125        O  0.43252608  0.85525147  0.22084819    -0.58800
O126        O  0.44200423  0.89465629  0.28247483    -0.49800
C127        C  0.54738030  0.93090900  0.18433434     0.72300
O128        O  0.50531845  0.94496508  0.16271620    -0.44600
C129        C  0.46706710  0.04311525  0.25982826     0.77000
O130        O  0.39126765  0.94610052  0.16396710    -0.56500
O131        O  0.45892444  0.99960278  0.28137492    -0.46600
O132        O  0.35929870  0.96771051  0.22626640    -0.52900
C133        C  0.43294712  0.85063812  0.26182150     0.87100
O134        O  0.53933118  0.92477947  0.22462411    -0.54800
O135        O  0.46576443  0.03752474  0.21894152    -0.58100
In136      In  0.95123490  0.44756074  0.26042038     1.36900
C137        C  0.05000100  0.46266365  0.29690415     0.79600
O138        O  0.96795912  0.35653423  0.26366116    -0.58800
O139        O  0.95871273  0.39369858  0.20111807    -0.49800
C140        C  0.85249417  0.43308500  0.29706752     0.72300
O141        O  0.89402252  0.44821340  0.31888116    -0.44600
C142        C  0.93395236  0.54302097  0.22038066     0.77000
O143        O  0.00811777  0.44934424  0.31903278    -0.56500
O144        O  0.94376267  0.49911289  0.19979732    -0.46600
O145        O  0.04141233  0.46840544  0.25664577    -0.52900
C146        C  0.96758687  0.35043341  0.22280875     0.87100
O147        O  0.86140770  0.42544195  0.25705386    -0.54800
O148        O  0.93349671  0.53849906  0.26135819    -0.58100
C149        C  0.38860938  0.66151170  0.33789714    -0.16500
C150        C  0.40069034  0.70490770  0.32121942     0.07600
C151        C  0.41354766  0.75568021  0.30110737     0.09400
C152        C  0.42318272  0.79903031  0.28340357    -0.17300
C153        C  0.24980394  0.51210197  0.35053946    -0.16500
C154        C  0.20414715  0.49560387  0.34144860     0.07600
C155        C  0.14988296  0.48084201  0.32877825     0.09400
C156        C  0.10376570  0.47124963  0.31576641    -0.17300
C157        C  0.43570843  0.46578808  0.36658549    -0.11300
C158        C  0.46675837  0.42686618  0.36635141    -0.12800
C159        C  0.65284553  0.38192333  0.34977204    -0.16500
C160        C  0.69843213  0.39897744  0.34109496     0.07600
C161        C  0.75266315  0.41441407  0.32883006     0.09400
C162        C  0.79877317  0.42443645  0.31599495    -0.17300
C163        C  0.47780050  0.09516617  0.28040857    -0.16500
C164        C  0.48833793  0.13856537  0.29769172     0.07600
C165        C  0.50214072  0.18908799  0.31777987     0.09400
C166        C  0.51467371  0.23213570  0.33479126    -0.17300
C167        C  0.29580951  0.96873914  0.16788162    -0.16500
C168        C  0.24949740  0.97834732  0.15530904     0.07600
C169        C  0.19511067  0.99336228  0.14314898     0.09400
C170        C  0.14945101  0.01017922  0.13442509    -0.17300
C171        C  0.97714344  0.29804315  0.20242581    -0.16500
C172        C  0.98656044  0.25423795  0.18539027     0.07600
C173        C  0.99922880  0.20324441  0.16559686     0.09400
C174        C  0.01122463  0.15993347  0.14876866    -0.17300
C175        C  0.93226550  0.92646135  0.11581169    -0.11300
C176        C  0.96333826  0.96534034  0.11648977    -0.12800
C177        C  0.60075862  0.92185623  0.16491518    -0.16500
C178        C  0.64665526  0.91174839  0.15164556     0.07600
C179        C  0.70076044  0.89646513  0.13891426     0.09400
C180        C  0.74637617  0.87971986  0.12995477    -0.17300
C181        C  0.92319884  0.59434887  0.19870625    -0.16500
C182        C  0.91245682  0.63732912  0.18085731     0.07600
C183        C  0.89833708  0.68760667  0.16053269     0.09400
C184        C  0.88555947  0.73068195  0.14368314    -0.17300
C185        C  0.56237726  0.33988394  0.50966225    -0.11300
C186        C  0.55725967  0.33532110  0.47067247    -0.12800
C187        C  0.66567750  0.38145488  0.64577908    -0.16500
C188        C  0.70845935  0.39444378  0.66304030     0.07600
C189        C  0.75859718  0.40877375  0.68353716     0.09400
C190        C  0.80167511  0.41964018  0.70123600    -0.17300
C191        C  0.47587510  0.09595760  0.66478743    -0.16500
C192        C  0.48602790  0.14186085  0.65160294     0.07600
C193        C  0.50097281  0.19608148  0.63895462     0.09400
C194        C  0.51739164  0.24183074  0.63009683    -0.17300
C195        C  0.34042172  0.54959672  0.51107253    -0.11300
C196        C  0.34561472  0.55510270  0.47217175    -0.12800
C197        C  0.43171877  0.45920948  0.61498859    -0.11300
C198        C  0.47048324  0.42791810  0.61470074    -0.12800
C199        C  0.38450485  0.64547689  0.63232726    -0.16500
C200        C  0.40003061  0.69146235  0.64139409     0.07600
C201        C  0.41363251  0.74599371  0.65412419     0.09400
C202        C  0.42276275  0.79219838  0.66710045    -0.17300
C203        C  0.09856692  0.47202291  0.70087246    -0.16500
C204        C  0.14216705  0.48111424  0.68331965     0.07600
C205        C  0.19305565  0.49363134  0.66320629     0.09400
C206        C  0.23636832  0.50569887  0.64633491    -0.17300
C207        C  0.06112255  0.05264183  0.97416983    -0.11300
C208        C  0.05538473  0.05701556  0.01311706    -0.12800
C209        C  0.01807355  0.15173224  0.85374222    -0.16500
C210        C  0.00178950  0.19746443  0.84471499     0.07600
C211        C  0.98700519  0.25161072  0.83180786     0.09400
C212        C  0.97695883  0.29742107  0.81839996    -0.17300
C213        C  0.30172437  0.97318000  0.78273369    -0.16500
C214        C  0.25883376  0.98411211  0.80072181     0.07600
C215        C  0.20880295  0.99854739  0.82137816     0.09400
C216        C  0.16600996  0.01163043  0.83860739    -0.17300
C217        C  0.83960132  0.84290829  0.97018235    -0.11300
C218        C  0.84430747  0.83718690  0.00910075    -0.12800
C219        C  0.93147851  0.93463148  0.86732072    -0.11300
C220        C  0.97024051  0.96590502  0.86802027    -0.12800
C221        C  0.92365762  0.60130688  0.81452894    -0.16500
C222        C  0.91440316  0.64762551  0.82722766     0.07600
C223        C  0.90066230  0.70223070  0.83972881     0.09400
C224        C  0.88504058  0.74822329  0.84871972    -0.17300
C225        C  0.59853475  0.92069593  0.78039534    -0.16500
C226        C  0.64231726  0.91180167  0.79769749     0.07600
C227        C  0.69330742  0.89956134  0.81771765     0.09400
C228        C  0.73661264  0.88766071  0.83464918    -0.17300
loop_ 
_geom_bond_atom_site_label_1 
_geom_bond_atom_site_label_2 
_geom_bond_distance 
_geom_bond_site_symmetry_2 
_ccdc_geom_bond_type 
C1            C2   1.534       .  S
C1            C7   1.532       .  S
C1            C5   1.532       .  S
C1          C228   1.465       .  S
C2            H9   1.087       .  S
C2            C3   1.364       .  D
C3            C4   1.537       .  S
C3          C217   1.440       .  S
C4            C8   1.541       .  S
C4            C6   1.541       .  S
C4           H10   1.112       .  S
C5           H11   1.087       .  S
C5            C6   1.363       .  D
C6          C219   1.442       .  S
C7           H12   1.087       .  S
C7            C8   1.363       .  D
C8          C224   1.446       .  S
C13          C14   1.534       .  S
C13          C19   1.532       .  S
C13          C17   1.532   1_545  S
C13         C216   1.466       .  S
C14          H21   1.087       .  S
C14          C15   1.364       .  D
C15          C16   1.537       .  S
C15         C207   1.441       .  S
C16          C20   1.541       .  S
C16          C18   1.540       .  S
C16          H22   1.112   1_455  S
C17          H23   1.087       .  S
C17          C18   1.362   1_565  D
C18         C220   1.442   1_445  S
C19          H24   1.087       .  S
C19          C20   1.364       .  D
C20         C209   1.445       .  S
C25          C26   1.534       .  S
C25          C31   1.532       .  S
C25          C29   1.532       .  S
C25         C206   1.466       .  S
C26          H33   1.087       .  S
C26          C27   1.364       .  D
C27          C28   1.537       .  S
C27         C195   1.440       .  S
C28          C32   1.541       .  S
C28          C30   1.541       .  S
C28          H34   1.112       .  S
C29          H35   1.087       .  S
C29          C30   1.363       .  D
C30         C197   1.442       .  S
C31          H36   1.087       .  S
C31          C32   1.363       .  D
C32         C199   1.446       .  S
C37          C38   1.534       .  S
C37          C43   1.532       .  S
C37          C41   1.531       .  S
C37         C187   1.466       .  S
C38          H45   1.087       .  S
C38          C39   1.364       .  D
C39          C40   1.537       .  S
C39         C185   1.441       .  S
C40          C44   1.541       .  S
C40          C42   1.541       .  S
C40          H46   1.112       .  S
C41          H47   1.087       .  S
C41          C42   1.362       .  D
C42         C198   1.442       .  S
C43          H48   1.087       .  S
C43          C44   1.364       .  D
C44         C194   1.446       .  S
In49         O51   2.246       .  S
In49         O52   2.243       .  S
In49         O60   2.246       .  S
In49         O54   2.264       .  S
In49         O56   2.264       .  S
In49         O57   2.244   1_655  S
In49         O58   2.244       .  S
In49         O61   2.246   1_655  S
C50          O56   1.261       .  A
C50          O58   1.258       .  A
C50         C212   1.439       .  S
O51          C59   1.259       .  A
O52          C59   1.259       .  A
C53          O60   1.258       .  A
C53          O54   1.261       .  A
C53         C221   1.440       .  S
C55          O57   1.259       .  A
C55          O61   1.259       .  A
C55         C203   1.433       .  S
C59         C190   1.433       .  S
In62         O64   2.247       .  S
In62         O65   2.244       .  S
In62         O73   2.246       .  S
In62         O67   2.263       .  S
In62         O69   2.264       .  S
In62         O70   2.244       .  S
In62         O71   2.244   1_565  S
In62         O74   2.246       .  S
C63          O69   1.261   1_545  A
C63          O71   1.258       .  A
C63         C191   1.440       .  S
O64          C72   1.259       .  A
O65          C72   1.259       .  A
C66          O73   1.258       .  A
C66          O67   1.261       .  A
C66         C202   1.440       .  S
C68          O70   1.259       .  A
C68          O74   1.259       .  A
C68         C225   1.433       .  S
C72         C213   1.433       .  S
C75          C76   1.534       .  S
C75          C81   1.532       .  S
C75          C79   1.532       .  S
C75         C184   1.466       .  S
C76          H83   1.087       .  S
C76          C77   1.364       .  D
C77          C78   1.537       .  S
C77         C218   1.440       .  S
C78          C82   1.540       .  S
C78          C80   1.540       .  S
C78          H84   1.112       .  S
C79          H85   1.087       .  S
C79          C80   1.362       .  D
C80         C175   1.441       .  S
C81          H86   1.087       .  S
C81          C82   1.364       .  D
C82         C180   1.445       .  S
C87          C88   1.534       .  S
C87          C93   1.533       .  S
C87          C91   1.532   1_455  S
C87         C174   1.466       .  S
C88          H95   1.087       .  S
C88          C89   1.364       .  D
C89          C90   1.537       .  S
C89         C208   1.440       .  S
C90          C94   1.540       .  S
C90          C92   1.540   1_455  S
C90          H96   1.112   1_545  S
C91          H97   1.087       .  S
C91          C92   1.363       .  D
C92         C176   1.441   1_545  S
C93          H98   1.087       .  S
C93          C94   1.364       .  D
C94         C170   1.445       .  S
C99         C100   1.534       .  S
C99         C105   1.533       .  S
C99         C103   1.532       .  S
C99         C166   1.466       .  S
C100        H107   1.087       .  S
C100        C101   1.364       .  D
C101        C102   1.537       .  S
C101        C186   1.441       .  S
C102        C106   1.540       .  S
C102        C104   1.540       .  S
C102        H108   1.112       .  S
C103        H109   1.087       .  S
C103        C104   1.363       .  D
C104        C158   1.442       .  S
C105        H110   1.087       .  S
C105        C106   1.364       .  D
C106        C159   1.445       .  S
C111        C112   1.534       .  S
C111        C117   1.532       .  S
C111        C115   1.532       .  S
C111        C149   1.466       .  S
C112        H119   1.087       .  S
C112        C113   1.364       .  D
C113        C114   1.537       .  S
C113        C196   1.440       .  S
C114        C118   1.540       .  S
C114        C116   1.540       .  S
C114        H120   1.112       .  S
C115        H121   1.087       .  S
C115        C116   1.363       .  D
C116        C157   1.442       .  S
C117        H122   1.087       .  S
C117        C118   1.364       .  D
C118        C153   1.445       .  S
In123       O125   2.245       .  S
In123       O126   2.245       .  S
In123       O134   2.242       .  S
In123       O128   2.263       .  S
In123       O130   2.263       .  S
In123       O131   2.244       .  S
In123       O132   2.243       .  S
In123       O135   2.246   1_565  S
C124        O130   1.261       .  A
C124        O132   1.258       .  A
C124        C167   1.439       .  S
O125        C133   1.259       .  A
O126        C133   1.259       .  A
C127        O134   1.258       .  A
C127        O128   1.261       .  A
C127        C177   1.439       .  S
C129        O131   1.259   1_545  A
C129        O135   1.260       .  A
C129        C163   1.434       .  S
C133        C152   1.434       .  S
In136       O138   2.245       .  S
In136       O139   2.243       .  S
In136       O147   2.241       .  S
In136       O141   2.263       .  S
In136       O143   2.262   1_655  S
In136       O144   2.244       .  S
In136       O145   2.243   1_655  S
In136       O148   2.245       .  S
C137        O143   1.261       .  A
C137        O145   1.258       .  A
C137        C156   1.439       .  S
O138        C146   1.260       .  A
O139        C146   1.259       .  A
C140        O147   1.258       .  A
C140        O141   1.261       .  A
C140        C162   1.439       .  S
C142        O144   1.259       .  A
C142        O148   1.259       .  A
C142        C181   1.433       .  S
C146        C171   1.433       .  S
C149        C150   1.205       .  T
C150        C151   1.410       .  S
C151        C152   1.205       .  T
C153        C154   1.208       .  T
C154        C155   1.415       .  S
C155        C156   1.208       .  T
C157        C158   1.206       .  T
C159        C160   1.208       .  T
C160        C161   1.415       .  S
C161        C162   1.208       .  T
C163        C164   1.205       .  T
C164        C165   1.410       .  S
C165        C166   1.205       .  T
C167        C168   1.208       .  T
C168        C169   1.415       .  S
C169        C170   1.208   1_565  T
C171        C172   1.204       .  T
C172        C173   1.410       .  S
C173        C174   1.205   1_655  T
C175        C176   1.206       .  T
C177        C178   1.208       .  T
C178        C179   1.415       .  S
C179        C180   1.208       .  T
C181        C182   1.204       .  T
C182        C183   1.410       .  S
C183        C184   1.205       .  T
C185        C186   1.205       .  T
C187        C188   1.204       .  T
C188        C189   1.410       .  S
C189        C190   1.204       .  T
C191        C192   1.208       .  T
C192        C193   1.417       .  S
C193        C194   1.208       .  T
C195        C196   1.205       .  T
C197        C198   1.206       .  T
C199        C200   1.208       .  T
C200        C201   1.416       .  S
C201        C202   1.208       .  T
C203        C204   1.204       .  T
C204        C205   1.410       .  S
C205        C206   1.205       .  T
C207        C208   1.205   1_556  T
C209        C210   1.208       .  T
C210        C211   1.416   1_455  S
C211        C212   1.208       .  T
C213        C214   1.204       .  T
C214        C215   1.410       .  S
C215        C216   1.205   1_565  T
C217        C218   1.205   1_556  T
C219        C220   1.206       .  T
C221        C222   1.209       .  T
C222        C223   1.417       .  S
C223        C224   1.209       .  T
C225        C226   1.204       .  T
C226        C227   1.410       .  S
C227        C228   1.204       .  T
