geometry optimzed in LAMMPS
_audit_creation_date              2020-11-30 
_audit_creation_method            'lammps2cif' 
_symmetry_space_group_name_H-M    'P1' 
_symmetry_Int_Tables_number       1 
_symmetry_cell_setting            triclinic 
loop_ 
_symmetry_equiv_pos_as_xyz 
  x,y,z 
_cell_length_a                    36.30365655 
_cell_length_b                    36.306176479188075 
_cell_length_c                    23.160717878418822 
_cell_angle_alpha                 90.00726963017236 
_cell_angle_beta                  90.00084226638198 
_cell_angle_gamma                 119.64692792518193 
loop_ 
_atom_site_label 
_atom_site_type_symbol 
_atom_site_fract_x 
_atom_site_fract_y 
_atom_site_fract_z 
_atom_site_charge 
C1          C  0.66490539  0.33153812  0.80642805     0.47600
H2          H  0.66511583  0.33170447  0.85442614    -0.01400
C3          C  0.66443988  0.33122112  0.69360184     0.47700
H4          H  0.66424754  0.33110508  0.64560372    -0.01400
C5          C  0.65487541  0.36428867  0.77957402    -0.15100
C6          C  0.70738116  0.34115346  0.77926508    -0.14800
C7          C  0.63213321  0.28896642  0.77989158    -0.15200
C8          C  0.65464365  0.36413759  0.72046191    -0.15200
C9          C  0.70713740  0.34098797  0.72013872    -0.14700
C10         C  0.63189924  0.28880130  0.72075654    -0.15100
N11         N  0.61806256  0.55969864  0.95862247    -0.25100
N12         N  0.65887481  0.58214866  0.94588858    -0.33000
C13         C  0.67118270  0.55692507  0.91980989     0.03200
C14         C  0.63654280  0.51678874  0.91603571     0.09300
C15         C  0.60333557  0.51945889  0.94087689    -0.03800
H16         H  0.70300037  0.56712267  0.90474661     0.09900
H17         H  0.57090658  0.49412254  0.94572870     0.11100
Cu18       Cu  0.69652760  0.64599970  0.96427555     0.44200
Cu19       Cu  0.58456143  0.58508893  0.99971363     0.42000
Cu20       Cu  0.64529407  0.69712706  0.03492659     0.43900
N21         N  0.72765086  0.70950695  0.98677674    -0.32500
N22         N  0.70883509  0.72829215  0.01257193    -0.26700
C23         C  0.73742467  0.76935211  0.02122180    -0.02800
C24         C  0.77585173  0.77647360  0.99983976     0.09400
C25         C  0.76873837  0.73808421  0.97832850     0.03200
H26         H  0.73067252  0.79221808  0.04159045     0.10800
H27         H  0.79164049  0.73134115  0.95803500     0.09900
N28         N  0.58147837  0.65935333  0.05346204    -0.33900
N29         N  0.55910221  0.61851722  0.04083355    -0.26100
C30         C  0.51888231  0.60369348  0.05875001    -0.01400
C31         C  0.51615118  0.63686765  0.08359421     0.07200
C32         C  0.55622636  0.67158190  0.07963992     0.05300
H33         H  0.49362298  0.57124229  0.05403213     0.10400
H34         H  0.56637170  0.70340395  0.09467835     0.09300
C35         C  0.95939493  0.95976900  0.00016315     0.05300
C36         C  0.95929450  0.99830858  0.00029781    -0.10800
C37         C  0.99768618  0.03667961  0.00025952     0.02800
C38         C  0.03616585  0.03648997  0.00006176    -0.09400
C39         C  0.03631288  0.99799164  0.99991118     0.05300
C40         C  0.99791585  0.95962025  0.99997955    -0.08800
H41         H  0.92948220  0.99844050  0.00042530     0.10900
H42         H  0.06593176  0.06623799  0.00000731     0.08400
H43         H  0.99801245  0.92981033  0.99986158     0.08300
N44         N  0.93995713  0.38067173  0.95936951    -0.25100
N45         N  0.92096933  0.33937682  0.94960184    -0.33000
C46         C  0.88313079  0.32682174  0.92472447     0.03200
C47         C  0.87805138  0.36179990  0.91858029     0.09300
C48         C  0.91452583  0.39549298  0.94080584    -0.03800
H49         H  0.86119116  0.29467329  0.91158957     0.09900
H50         H  0.92218443  0.42828016  0.94294441     0.11100
Cu51       Cu  0.94723236  0.30156552  0.96863550     0.44200
Cu52       Cu  0.99987801  0.41464089  0.99690084     0.42000
Cu53       Cu  0.05257741  0.35374376  0.02834135     0.43900
N54         N  0.98034728  0.27037770  0.98826747    -0.32500
N55         N  0.01917807  0.28955027  0.00978348    -0.26700
C56         C  0.03187450  0.26079432  0.01735451    -0.02800
C57         C  0.99942477  0.22190439  0.99973189     0.09400
C58         C  0.96725855  0.22892145  0.98155211     0.03200
H59         H  0.06243040  0.26774392  0.03451384     0.10800
H60         H  0.93660620  0.20569366  0.96463824     0.09900
N61         N  0.07852058  0.41774575  0.04625211    -0.33900
N62         N  0.05954866  0.44011907  0.03525794    -0.26100
C63         C  0.08462125  0.48018055  0.05377960    -0.01400
C64         C  0.12085347  0.48280592  0.07727907     0.07200
C65         C  0.11600220  0.44283469  0.07191148     0.05300
H66         H  0.07680315  0.50524246  0.05095505     0.10400
H67         H  0.13779634  0.43251561  0.08629227     0.09300
N68         N  0.38023226  0.94003972  0.03966665    -0.25100
N69         N  0.33888213  0.92094178  0.04903630    -0.33000
C70         C  0.32629626  0.88308533  0.07386342     0.03200
C71         C  0.36131253  0.87810627  0.08039425     0.09300
C72         C  0.39505307  0.91466109  0.05844635    -0.03800
H73         H  0.29411765  0.86109425  0.08676572     0.09900
H74         H  0.42791546  0.92243655  0.05669716     0.11100
Cu75       Cu  0.30106679  0.94716823  0.02977868     0.44200
Cu76       Cu  0.41426979  0.00009151  0.00252699     0.42000
Cu77       Cu  0.35339506  0.05287362  0.97130492     0.43900
N78         N  0.26990938  0.98037247  0.01048450    -0.32500
N79         N  0.28913534  0.01933804  0.98944870    -0.26700
C80         C  0.26039982  0.03209483  0.98212844    -0.02800
C81         C  0.22146631  0.99953887  0.99941424     0.09400
C82         C  0.22843800  0.96725175  0.01713628     0.03200
H83         H  0.26739588  0.06276253  0.96542289     0.10800
H84         H  0.20518275  0.93651931  0.03374799     0.09900
N85         N  0.41746769  0.07893080  0.95376174    -0.33900
N86         N  0.43982827  0.05992838  0.96465508    -0.26100
C87         C  0.47992982  0.08507893  0.94634267    -0.01400
C88         C  0.48260079  0.12139410  0.92309236     0.07200
C89         C  0.44260922  0.11650678  0.92838485     0.05300
H90         H  0.50499300  0.07724021  0.94909425     0.10400
H91         H  0.43229873  0.13833412  0.91408226     0.09300
C92         C  0.33101831  0.66520046  0.19358513     0.47600
H93         H  0.33110538  0.66529278  0.14558673    -0.01400
C94         C  0.33088438  0.66500398  0.30641338     0.47700
H95         H  0.33084814  0.66492843  0.35441183    -0.01400
C96         C  0.36379781  0.65521078  0.22044829    -0.15100
C97         C  0.34070262  0.70774772  0.22057710    -0.14800
C98         C  0.28848121  0.63250956  0.22028502    -0.15200
C99         C  0.36374345  0.65512248  0.27956072    -0.15200
C100        C  0.34063071  0.70763977  0.27970468    -0.14700
C101        C  0.28841095  0.63241467  0.27942074    -0.15100
N102        N  0.55945443  0.61859708  0.45843018    -0.25100
N103        N  0.58188892  0.65941106  0.44571171    -0.33000
C104        C  0.55665421  0.67168681  0.41958344     0.03200
C105        C  0.51652554  0.63702898  0.41575563     0.09300
C106        C  0.51921711  0.60384090  0.44062452    -0.03800
H107        H  0.56684087  0.70351444  0.40452807     0.09900
H108        H  0.49390213  0.57142113  0.44546852     0.11100
Cu109      Cu  0.64574636  0.69709543  0.46418832     0.44200
Cu110      Cu  0.58485907  0.58512627  0.49961081     0.42000
Cu111      Cu  0.69699240  0.64581077  0.53443450     0.43900
N112        N  0.70930249  0.72821892  0.48654895    -0.32500
N113        N  0.72813927  0.70938119  0.51214514    -0.26700
C114        C  0.76921641  0.73797152  0.52070452    -0.02800
C115        C  0.77629899  0.77642253  0.49947882     0.09400
C116        C  0.73786348  0.76931889  0.47814990     0.03200
H117        H  0.79212612  0.73120463  0.54092082     0.10800
H118        H  0.73108044  0.79223566  0.45800686     0.09900
N119        N  0.65917215  0.58202270  0.55322533    -0.33900
N120        N  0.61830101  0.55967731  0.54076402    -0.26100
C121        C  0.60345239  0.51949387  0.55884496    -0.01400
C122        C  0.63663316  0.51673703  0.58362317     0.07200
C123        C  0.67139020  0.55677740  0.57945549     0.05300
H124        H  0.57095045  0.49424810  0.55426769     0.10400
H125        H  0.70322906  0.56689988  0.59437958     0.09300
C126        C  0.95956491  0.96003864  0.49955797     0.05300
C127        C  0.95939441  0.99853852  0.49882365    -0.10800
C128        C  0.99774881  0.03694904  0.49868967     0.02800
C129        C  0.03627002  0.03684175  0.49934378    -0.09400
C130        C  0.03648014  0.99837572  0.50010176     0.05300
C131        C  0.99811990  0.95997069  0.50018650    -0.08800
H132        H  0.92955271  0.99860930  0.49832032     0.10900
H133        H  0.06600641  0.06661555  0.49924991     0.08400
H134        H  0.99827179  0.93018843  0.50074870     0.08300
N135        N  0.93825954  0.37999015  0.53632373    -0.25100
N136        N  0.91901279  0.33858593  0.54527206    -0.33000
C137        C  0.88123118  0.32603972  0.57032224     0.03200
C138        C  0.87645832  0.36113239  0.57744642     0.09300
C139        C  0.91305847  0.39488650  0.55561184    -0.03800
H140        H  0.85917397  0.29383126  0.58306617     0.09900
H141        H  0.92100237  0.42777164  0.55435972     0.11100
Cu142      Cu  0.94500230  0.30063321  0.52545395     0.44200
Cu143      Cu  0.99833575  0.41408617  0.49925471     0.42000
Cu144      Cu  0.05058414  0.35302466  0.46662084     0.43900
N145        N  0.97823028  0.26951917  0.50593769    -0.32500
N146        N  0.01713993  0.28879988  0.48470080    -0.26700
C147        C  0.03006496  0.26018960  0.47754255    -0.02800
C148        C  0.99768710  0.22126901  0.49514425     0.09400
C149        C  0.96531861  0.22811776  0.51289410     0.03200
H150        H  0.06079418  0.26729308  0.46089564     0.10800
H151        H  0.93471646  0.20484650  0.52988074     0.09900
N152        N  0.07700679  0.41722118  0.45004614    -0.33900
N153        N  0.05821884  0.43969916  0.46150716    -0.26100
C154        C  0.08363964  0.47993365  0.44390651    -0.01400
C155        C  0.11989956  0.48254352  0.42052961     0.07200
C156        C  0.11470713  0.44239752  0.42500552     0.05300
H157        H  0.07603490  0.50511955  0.44723856     0.10400
H158        H  0.13641455  0.43202293  0.41041764     0.09300
N159        N  0.37971783  0.93913263  0.46248478    -0.25100
N160        N  0.33838371  0.92004364  0.45295536    -0.33000
C161        C  0.32587569  0.88227217  0.42789777     0.03200
C162        C  0.36092182  0.87734350  0.42138107     0.09300
C163        C  0.39460207  0.91383612  0.44357676    -0.03800
H164        H  0.29373242  0.86031464  0.41480218     0.09900
H165        H  0.42746653  0.92163635  0.44538149     0.11100
Cu166      Cu  0.30045259  0.94614576  0.47224185     0.44200
Cu167      Cu  0.41371537  0.99907399  0.49994624     0.42000
Cu168      Cu  0.35264918  0.05137752  0.53221048     0.43900
N169        N  0.26930160  0.97932061  0.49182396    -0.32500
N170        N  0.28850874  0.01809993  0.51349950    -0.26700
C171        C  0.25986937  0.03097915  0.52076119    -0.02800
C172        C  0.22100737  0.99870272  0.50276366     0.09400
C173        C  0.22791870  0.96644330  0.48468015     0.03200
H174        H  0.26689976  0.06157205  0.53780983     0.10800
H175        H  0.20469838  0.93592443  0.46742310     0.09900
N176        N  0.41674236  0.07760881  0.54946420    -0.33900
N177        N  0.43921943  0.05880075  0.53812118    -0.26100
C178        C  0.47937982  0.08410423  0.55610213    -0.01400
C179        C  0.48194722  0.12030588  0.57961007     0.07200
C180        C  0.44185030  0.11520457  0.57481127     0.05300
H181        H  0.50456694  0.07646862  0.55288827     0.10400
H182        H  0.43146703  0.13692476  0.58933605     0.09300
C183        C  0.07607920  0.99833642  0.50081059    -0.16300
C184        C  0.10931684  0.99844568  0.50141756     0.07700
C185        C  0.14825491  0.99863359  0.50207404     0.09600
C186        C  0.18148857  0.99873955  0.50250045    -0.17200
C187        C  0.99778495  0.18178265  0.49554656    -0.16300
C188        C  0.99774438  0.14858388  0.49613562     0.07700
C189        C  0.99764068  0.10969075  0.49701026     0.09600
C190        C  0.99760737  0.07649378  0.49779936    -0.17200
C191        C  0.92017306  0.92058887  0.49962485    -0.16300
C192        C  0.88719432  0.88753654  0.49964587     0.07700
C193        C  0.84859096  0.84883553  0.49963096     0.09600
C194        C  0.81561428  0.81578655  0.49958246    -0.17200
C195        C  0.15518757  0.51871816  0.39419906    -0.16300
C196        C  0.18553875  0.54713709  0.37040139     0.07700
C197        C  0.22150090  0.57842750  0.34068751     0.09600
C198        C  0.25212534  0.60367154  0.31374483    -0.17200
C199        C  0.34846184  0.74405974  0.31423624    -0.16300
C200        C  0.35423714  0.77493583  0.34118907     0.07700
C201        C  0.35941724  0.81126548  0.37085827     0.09600
C202        C  0.36168156  0.84189081  0.39472119    -0.17200
C203        C  0.47988375  0.63623756  0.39055216    -0.16300
C204        C  0.45081147  0.63805321  0.36809317     0.07700
C205        C  0.41864682  0.64248876  0.33992524     0.09600
C206        C  0.39279318  0.64769038  0.31382877    -0.17200
C207        C  0.34860899  0.74430098  0.18630838    -0.16300
C208        C  0.35443234  0.77530086  0.15963902     0.07700
C209        C  0.35966182  0.81177508  0.13032893     0.09600
C210        C  0.36198140  0.84251833  0.10675816    -0.17200
C211        C  0.25230667  0.60380645  0.18571143    -0.16300
C212        C  0.22180705  0.57855581  0.15853964     0.07700
C213        C  0.18602631  0.54725257  0.12849008     0.09600
C214        C  0.15587202  0.51886473  0.10429008    -0.17200
C215        C  0.18178538  0.99925957  0.99917826    -0.16300
C216        C  0.14837340  0.99879795  0.99920036     0.07700
C217        C  0.10924026  0.99822464  0.99940057     0.09600
C218        C  0.07590474  0.99792533  0.99963522    -0.17200
C219        C  0.99909888  0.18220669  0.00019640    -0.16300
C220        C  0.99860170  0.14878134  0.00038853     0.07700
C221        C  0.99799069  0.10963460  0.00043720     0.09600
C222        C  0.99766108  0.07628739  0.00038471    -0.17200
C223        C  0.47954728  0.63601599  0.10898318    -0.16300
C224        C  0.45056242  0.63787536  0.13162273     0.07700
C225        C  0.41854819  0.64243705  0.15997613     0.09600
C226        C  0.39280639  0.64774472  0.18616962    -0.17200
C227        C  0.91996105  0.92036711  0.00016563    -0.16300
C228        C  0.88692287  0.88737913  0.00013270     0.07700
C229        C  0.84824020  0.84876766  0.00006015     0.09600
C230        C  0.81520396  0.81578589  0.99997266    -0.17200
C231        C  0.51867709  0.15645447  0.89618248    -0.16300
C232        C  0.54705188  0.18661838  0.87198840     0.07700
C233        C  0.57831191  0.22238266  0.84187168     0.09600
C234        C  0.60350770  0.25284865  0.81460412    -0.17200
C235        C  0.51807317  0.15552624  0.60614228    -0.16300
C236        C  0.54648251  0.18585015  0.63000677     0.07700
C237        C  0.57779325  0.22181436  0.65970057     0.09600
C238        C  0.60307877  0.25246462  0.68656844    -0.17200
C239        C  0.74400303  0.34908446  0.81338946    -0.16300
C240        C  0.77505903  0.35492009  0.83992659     0.07700
C241        C  0.81159891  0.36015603  0.86905380     0.09600
C242        C  0.84239977  0.36247425  0.89244569    -0.17200
C243        C  0.84108905  0.36187818  0.60442268    -0.16300
C244        C  0.81053761  0.35962394  0.62850536     0.07700
C245        C  0.77428858  0.35447818  0.65837700     0.09600
C246        C  0.74347841  0.34874849  0.68546510    -0.17200
C247        C  0.63574931  0.48012768  0.60908360    -0.16300
C248        C  0.63751502  0.45108592  0.63172077     0.07700
C249        C  0.64193284  0.41896160  0.66003306     0.09600
C250        C  0.64715388  0.39314501  0.68618962    -0.17200
C251        C  0.63578709  0.48018196  0.89082136    -0.16300
C252        C  0.63768997  0.45118623  0.86829545     0.07700
C253        C  0.64224859  0.41914369  0.84002246     0.09600
C254        C  0.64750848  0.39336203  0.81385478    -0.17200
loop_ 
_geom_bond_atom_site_label_1 
_geom_bond_atom_site_label_2 
_geom_bond_distance 
_geom_bond_site_symmetry_2 
_ccdc_geom_bond_type 
C1            H2   1.112       .  S
C1            C7   1.537       .  S
C1            C6   1.537       .  S
C1            C5   1.537       .  S
C3            H4   1.112       .  S
C3            C9   1.537       .  S
C3            C8   1.537       .  S
C3           C10   1.537       .  S
C5            C8   1.369       .  D
C5          C254   1.447       .  S
C6            C9   1.369       .  D
C6          C239   1.448       .  S
C7           C10   1.370       .  D
C7          C234   1.448       .  S
C8          C250   1.448       .  S
C9          C246   1.448       .  S
C10         C238   1.448       .  S
N11          N12   1.324       .  A
N11          C15   1.348       .  A
N11         Cu19   2.084       .  S
N12          C13   1.345       .  A
N12         Cu18   2.071       .  S
C13          C14   1.378       .  A
C13          H16   1.082       .  S
C14          C15   1.382       .  A
C14         C251   1.439       .  S
C15          H17   1.083       .  S
Cu18         N21   2.070       .  S
Cu19         N29   2.084   1_556  S
Cu20         N22   2.071       .  S
Cu20         N28   2.071       .  S
N21          N22   1.323   1_556  A
N21          C25   1.345       .  A
N22          C23   1.345       .  A
C23          C24   1.379   1_554  A
C23          H26   1.083       .  S
C24          C25   1.379       .  A
C24         C230   1.436       .  S
C25          H27   1.083       .  S
N28          N29   1.324       .  A
N28          C32   1.345       .  A
N29          C30   1.348       .  A
C30          C31   1.382       .  A
C30          H33   1.083       .  S
C31          C32   1.378       .  A
C31         C223   1.439       .  S
C32          H34   1.082       .  S
C35          C36   1.401       .  A
C35          C40   1.401   1_554  A
C35         C227   1.439       .  S
C36          C37   1.401   1_565  A
C36          H41   1.085       .  S
C37          C38   1.400   1_655  A
C37         C222   1.438       .  S
C38          C39   1.400   1_544  A
C38          H42   1.086       .  S
C39          C40   1.401   1_455  A
C39         C218   1.439       .  S
C40          H43   1.084       .  S
N44          N45   1.323       .  A
N44          C48   1.348       .  A
N44         Cu52   2.087       .  S
N45          C46   1.344       .  A
N45         Cu51   2.070       .  S
C46          C47   1.378       .  A
C46          H49   1.081       .  S
C47          C48   1.383       .  A
C47         C242   1.440       .  S
C48          H50   1.081       .  S
Cu51         N54   2.069       .  S
Cu52         N62   2.087   1_656  S
Cu53         N55   2.071       .  S
Cu53         N61   2.072       .  S
N54          N55   1.323   1_656  A
N54          C58   1.345       .  A
N55          C56   1.345       .  A
C56          C57   1.379   1_454  A
C56          H59   1.084       .  S
C57          C58   1.378       .  A
C57         C219   1.435   1_556  S
C58          H60   1.084       .  S
N61          N62   1.324       .  A
N61          C65   1.345       .  A
N62          C63   1.348       .  A
C63          C64   1.383       .  A
C63          H66   1.081       .  S
C64          C65   1.378       .  A
C64         C214   1.440       .  S
C65          H67   1.082       .  S
N68          N69   1.324       .  A
N68          C72   1.348       .  A
N68         Cu76   2.087   1_565  S
N69          C70   1.344       .  A
N69         Cu75   2.070       .  S
C70          C71   1.378       .  A
C70          H73   1.081       .  S
C71          C72   1.383       .  A
C71         C210   1.440       .  S
C72          H74   1.082       .  S
Cu75         N78   2.069       .  S
Cu76         N86   2.087   1_554  S
Cu77         N79   2.072       .  S
Cu77         N85   2.072       .  S
N78          N79   1.323   1_564  A
N78          C82   1.345       .  A
N79          C80   1.345       .  A
C80          C81   1.379   1_545  A
C80          H83   1.084       .  S
C81          C82   1.379   1_556  A
C81         C215   1.436       .  S
C82          H84   1.083       .  S
N85          N86   1.324       .  A
N85          C89   1.345       .  A
N86          C87   1.348       .  A
C87          C88   1.383       .  A
C87          H90   1.081       .  S
C88          C89   1.378       .  A
C88         C231   1.440       .  S
C89          H91   1.082       .  S
C92          H93   1.112       .  S
C92          C98   1.537       .  S
C92          C97   1.537       .  S
C92          C96   1.537       .  S
C94          H95   1.112       .  S
C94         C100   1.537       .  S
C94          C99   1.537       .  S
C94         C101   1.537       .  S
C96          C99   1.369       .  D
C96         C226   1.447       .  S
C97         C100   1.369       .  D
C97         C207   1.448       .  S
C98         C101   1.370       .  D
C98         C211   1.448       .  S
C99         C206   1.448       .  S
C100        C199   1.448       .  S
C101        C198   1.448       .  S
N102        N103   1.324       .  A
N102        C106   1.348       .  A
N102       Cu110   2.085       .  S
N103        C104   1.345       .  A
N103       Cu109   2.072       .  S
C104        C105   1.378       .  A
C104        H107   1.082       .  S
C105        C106   1.382       .  A
C105        C203   1.440       .  S
C106        H108   1.083       .  S
Cu109       N112   2.071       .  S
Cu110       N120   2.085       .  S
Cu111       N113   2.071       .  S
Cu111       N119   2.072       .  S
N112        N113   1.323       .  A
N112        C116   1.345       .  A
N113        C114   1.345       .  A
C114        C115   1.379       .  A
C114        H117   1.083       .  S
C115        C116   1.379       .  A
C115        C194   1.436       .  S
C116        H118   1.083       .  S
N119        N120   1.324       .  A
N119        C123   1.345       .  A
N120        C121   1.348       .  A
C121        C122   1.382       .  A
C121        H124   1.083       .  S
C122        C123   1.378       .  A
C122        C247   1.440       .  S
C123        H125   1.082       .  S
C126        C127   1.401       .  A
C126        C131   1.401       .  A
C126        C191   1.439       .  S
C127        C128   1.401   1_565  A
C127        H132   1.085       .  S
C128        C129   1.400   1_655  A
C128        C190   1.438       .  S
C129        C130   1.400   1_545  A
C129        H133   1.086       .  S
C130        C131   1.401   1_455  A
C130        C183   1.438       .  S
C131        H134   1.084       .  S
N135        N136   1.324       .  A
N135        C139   1.349       .  A
N135       Cu143   2.087       .  S
N136        C137   1.344       .  A
N136       Cu142   2.070       .  S
C137        C138   1.378       .  A
C137        H140   1.081       .  S
C138        C139   1.383       .  A
C138        C243   1.440       .  S
C139        H141   1.081       .  S
Cu142       N145   2.070       .  S
Cu143       N153   2.087   1_655  S
Cu144       N146   2.070       .  S
Cu144       N152   2.071       .  S
N145        N146   1.323   1_655  A
N145        C149   1.345       .  A
N146        C147   1.345       .  A
C147        C148   1.379   1_455  A
C147        H150   1.084       .  S
C148        C149   1.379       .  A
C148        C187   1.435       .  S
C149        H151   1.084       .  S
N152        N153   1.324       .  A
N152        C156   1.344       .  A
N153        C154   1.348       .  A
C154        C155   1.383       .  A
C154        H157   1.081       .  S
C155        C156   1.378       .  A
C155        C195   1.440       .  S
C156        H158   1.082       .  S
N159        N160   1.324       .  A
N159        C163   1.348       .  A
N159       Cu167   2.087       .  S
N160        C161   1.344       .  A
N160       Cu166   2.070       .  S
C161        C162   1.378       .  A
C161        H164   1.081       .  S
C162        C163   1.383       .  A
C162        C202   1.440       .  S
C163        H165   1.082       .  S
Cu166       N169   2.069       .  S
Cu167       N177   2.087   1_565  S
Cu168       N170   2.070       .  S
Cu168       N176   2.071       .  S
N169        N170   1.323   1_565  A
N169        C173   1.345       .  A
N170        C171   1.345       .  A
C171        C172   1.379   1_545  A
C171        H174   1.084       .  S
C172        C173   1.379       .  A
C172        C186   1.435       .  S
C173        H175   1.083       .  S
N176        N177   1.324       .  A
N176        C180   1.344       .  A
N177        C178   1.348       .  A
C178        C179   1.382       .  A
C178        H181   1.081       .  S
C179        C180   1.378       .  A
C179        C235   1.440       .  S
C180        H182   1.082       .  S
C183        C184   1.205       .  T
C184        C185   1.410       .  S
C185        C186   1.205       .  T
C187        C188   1.205       .  T
C188        C189   1.410       .  S
C189        C190   1.205       .  T
C191        C192   1.205       .  T
C192        C193   1.411       .  S
C193        C194   1.205       .  T
C195        C196   1.207       .  T
C196        C197   1.415       .  S
C197        C198   1.207       .  T
C199        C200   1.207       .  T
C200        C201   1.415       .  S
C201        C202   1.207       .  T
C203        C204   1.207       .  T
C204        C205   1.415       .  S
C205        C206   1.207       .  T
C207        C208   1.207       .  T
C208        C209   1.415       .  S
C209        C210   1.208       .  T
C211        C212   1.208       .  T
C212        C213   1.415       .  S
C213        C214   1.208       .  T
C215        C216   1.205       .  T
C216        C217   1.411       .  S
C217        C218   1.205       .  T
C219        C220   1.205       .  T
C220        C221   1.410       .  S
C221        C222   1.205       .  T
C223        C224   1.207       .  T
C224        C225   1.414       .  S
C225        C226   1.207       .  T
C227        C228   1.205       .  T
C228        C229   1.411       .  S
C229        C230   1.205   1_554  T
C231        C232   1.208       .  T
C232        C233   1.415       .  S
C233        C234   1.208       .  T
C235        C236   1.207       .  T
C236        C237   1.415       .  S
C237        C238   1.207       .  T
C239        C240   1.207       .  T
C240        C241   1.415       .  S
C241        C242   1.207       .  T
C243        C244   1.208       .  T
C244        C245   1.415       .  S
C245        C246   1.207       .  T
C247        C248   1.207       .  T
C248        C249   1.415       .  S
C249        C250   1.207       .  T
C251        C252   1.207       .  T
C252        C253   1.414       .  S
C253        C254   1.207       .  T
