geometry optimzed in LAMMPS
_audit_creation_date              2020-11-30 
_audit_creation_method            'lammps2cif' 
_symmetry_space_group_name_H-M    'P1' 
_symmetry_Int_Tables_number       1 
_symmetry_cell_setting            triclinic 
loop_ 
_symmetry_equiv_pos_as_xyz 
  x,y,z 
_cell_length_a                    19.10722043 
_cell_length_b                    20.770865840712137 
_cell_length_c                    34.572365504453764 
_cell_angle_alpha                 90.01518909633248 
_cell_angle_beta                  87.24957348312758 
_cell_angle_gamma                 89.98522393220335 
loop_ 
_atom_site_label 
_atom_site_type_symbol 
_atom_site_fract_x 
_atom_site_fract_y 
_atom_site_fract_z 
_atom_site_charge 
N1          N  0.28931629  0.05374635  0.63091585     0.00500
C2          C  0.25079755  0.03529440  0.66293084     0.03100
C3          C  0.20019572  0.99123311  0.65383006    -0.19800
C4          C  0.20772993  0.98149279  0.61453275    -0.20000
C5          C  0.26269830  0.01991613  0.60127701     0.03000
H6          H  0.16261660  0.96802133  0.67366791     0.16800
H7          H  0.17695808  0.94930699  0.59752316     0.16800
O8          O  0.45336790  0.33603519  0.56775403    -0.68900
O9          O  0.60266238  0.20057792  0.56656914    -0.69900
O10         O  0.45359767  0.20055243  0.56778710    -0.58500
O11         O  0.60240860  0.33643486  0.56655743    -0.66900
O12         O  0.59840410  0.33739435  0.63083824    -0.66500
O13         O  0.44957691  0.19982744  0.63206999    -0.57800
O14         O  0.59868467  0.19963791  0.63084893    -0.70300
O15         O  0.44934536  0.33691373  0.63203662    -0.69000
Cu16       Cu  0.52822344  0.26839435  0.56499243     1.04600
Cu17       Cu  0.52396957  0.26844273  0.63376010     1.04300
C18         C  0.42731696  0.35744238  0.59992800     0.97300
C19         C  0.62420498  0.17862515  0.59836256     0.96400
C20         C  0.42760249  0.17917945  0.59997452     0.88500
C21         C  0.62383088  0.35847841  0.59836166     0.94800
N22         N  0.74878354  0.04375155  0.62595522     0.00500
C23         C  0.78078022  0.02069312  0.65722940     0.03100
C24         C  0.82879338  0.97352142  0.64669958    -0.19800
C25         C  0.82618743  0.96647656  0.60726486    -0.20000
C26         C  0.77665705  0.00959695  0.59535353     0.03000
H27         H  0.86131211  0.94648408  0.66568590     0.16800
H28         H  0.85637859  0.93284863  0.58929871     0.16800
N29         N  0.28878279  0.48283734  0.63069789     0.00500
C30         C  0.26216942  0.51652229  0.60100187     0.03100
C31         C  0.20707989  0.55490433  0.61418225    -0.19800
C32         C  0.19946630  0.54529126  0.65348606    -0.20000
C33         C  0.25014517  0.50134522  0.66267015     0.03000
H34         H  0.17629391  0.58699731  0.59712119     0.16800
H35         H  0.16179397  0.56852506  0.67327486     0.16800
N36         N  0.74752749  0.49378746  0.62623130     0.00500
C37         C  0.77532263  0.52818978  0.59572809     0.03100
C38         C  0.82447246  0.57153131  0.60780446    -0.19800
C39         C  0.82693522  0.56434114  0.64723599    -0.20000
C40         C  0.77921984  0.51686675  0.65760422     0.03000
H41         H  0.85457847  0.60533383  0.58994023     0.16800
H42         H  0.85922996  0.59141829  0.66632009     0.16800
N43         N  0.30292868  0.99334717  0.38082788     0.00500
C44         C  0.27508161  0.02751549  0.41142943     0.03100
C45         C  0.22563105  0.07070997  0.39951374    -0.19800
C46         C  0.22305099  0.06369569  0.36007538    -0.20000
C47         C  0.27099951  0.01646736  0.34954836     0.03000
H48         H  0.19546514  0.10435491  0.41748073     0.16800
H49         H  0.19057570  0.09077435  0.34108699     0.16800
O50         O  0.45303480  0.69950249  0.37594899    -0.68900
O51         O  0.60184652  0.83709093  0.37473645    -0.69900
O52         O  0.60211073  0.70000925  0.37476115    -0.58500
O53         O  0.45275815  0.83726288  0.37594432    -0.66900
O54         O  0.44874286  0.83630887  0.44022468    -0.66500
O55         O  0.59808934  0.70089714  0.43904364    -0.57800
O56         O  0.59779902  0.83637866  0.43901965    -0.70300
O57         O  0.44904277  0.70045098  0.44022962    -0.69000
Cu58       Cu  0.52747072  0.76846496  0.37303599     1.04600
Cu59       Cu  0.52320297  0.76851176  0.44180384     1.04300
C60         C  0.42760858  0.67841640  0.40842581     0.97300
C61         C  0.62379862  0.85775277  0.40683379     0.96400
C62         C  0.62415203  0.67949673  0.40687037     0.88500
C63         C  0.42722929  0.85827622  0.40842824     0.94800
N64         N  0.76212332  0.98313248  0.37587654     0.00500
C65         C  0.80066493  0.00152763  0.34385651     0.03100
C66         C  0.85131300  0.04554907  0.35294770    -0.19800
C67         C  0.84378312  0.05532436  0.39224251    -0.20000
C68         C  0.78877200  0.01696019  0.40550792     0.03000
H69         H  0.88892127  0.06871125  0.33310550     0.16800
H70         H  0.87459114  0.08749023  0.40924444     0.16800
N71         N  0.30371867  0.54323040  0.38057321     0.00500
C72         C  0.27196759  0.52018640  0.34921008     0.03100
C73         C  0.22421774  0.47274618  0.35958784    -0.19800
C74         C  0.22671715  0.46553879  0.39901614    -0.20000
C75         C  0.27592297  0.50883631  0.41108086     0.03000
H76         H  0.19188816  0.44569251  0.34051060     0.16800
H77         H  0.19660621  0.43174542  0.41688480     0.16800
N78         N  0.76273959  0.55414082  0.37610657     0.00500
C79         C  0.78934525  0.52045463  0.40580379     0.03100
C80         C  0.84442087  0.48205409  0.39262572    -0.19800
C81         C  0.85203341  0.49165620  0.35332126    -0.20000
C82         C  0.80136861  0.53561532  0.34413553     0.03000
H83         H  0.87519036  0.44994752  0.40968792     0.16800
H84         H  0.88968888  0.46840032  0.33353215     0.16800
O85         O  0.96060969  0.69967566  0.10446343    -0.68900
O86         O  0.10738547  0.83689143  0.08652398    -0.69900
O87         O  0.10776610  0.70030454  0.08648431    -0.58500
O88         O  0.96026182  0.83682103  0.10447438    -0.66900
O89         O  0.98050180  0.83703769  0.16714856    -0.66500
O90         O  0.12703005  0.69982280  0.14928529    -0.57800
O91         O  0.12666726  0.83739873  0.14932091    -0.70300
O92         O  0.98087386  0.69962171  0.16713449    -0.69000
Cu93       Cu  0.03324623  0.76841884  0.09330536     1.04600
Cu94       Cu  0.05442219  0.76847073  0.16040318     1.04300
C95         C  0.94803085  0.67766229  0.13864056     0.97300
C96         C  0.13992112  0.85895334  0.11510697     0.96400
C97         C  0.14041770  0.67836682  0.11505197     0.88500
C98         C  0.94755922  0.85882835  0.13864701     0.94800
N99         N  0.27295064  0.99280745  0.13134487     0.00500
C100        C  0.31327198  0.01449218  0.15980467     0.03100
C101        C  0.36041507  0.06016315  0.14592867    -0.19800
C102        C  0.34857332  0.06767081  0.10728243    -0.20000
C103        C  0.29461595  0.02636042  0.09917345     0.03000
H104        H  0.39817626  0.08617833  0.16228271     0.16800
H105        H  0.37553497  0.10058075  0.08739941     0.16800
N106        N  0.27406104  0.54498171  0.13108204     0.00500
C107        C  0.31461598  0.52350447  0.15948655     0.03100
C108        C  0.36217592  0.47823766  0.14550002    -0.19800
C109        C  0.35033426  0.47076961  0.10684356    -0.20000
C110        C  0.29596555  0.51170252  0.09883926     0.03000
H111        H  0.40019321  0.45242917  0.16178964     0.16800
H112        H  0.37754002  0.43809737  0.08689397     0.16800
N113        N  0.80532407  0.98507511  0.12392806     0.00500
C114        C  0.77244245  0.00770487  0.15695622     0.03100
C115        C  0.72931028  0.05885232  0.14900744    -0.19800
C116        C  0.73498952  0.06808493  0.10963072    -0.20000
C117        C  0.78144875  0.02225585  0.09516952     0.03000
H118        H  0.69670035  0.08609071  0.16958896     0.16800
H119        H  0.70760394  0.10379521  0.09329075     0.16800
N120        N  0.80640115  0.55078260  0.12413287     0.00500
C121        C  0.77395768  0.52796978  0.15722735     0.03100
C122        C  0.73131933  0.47642827  0.14938735    -0.19800
C123        C  0.73683416  0.46714321  0.11000977    -0.20000
C124        C  0.78270259  0.51333989  0.09543807     0.03000
H125        H  0.69907011  0.44901466  0.17003515     0.16800
H126        H  0.70965523  0.43120218  0.09373704     0.16800
O127        O  0.94368993  0.33663175  0.92032710    -0.68900
O128        O  0.09115766  0.20008067  0.90230104    -0.69900
O129        O  0.09085491  0.33722932  0.90235149    -0.58500
O130        O  0.94403870  0.20004521  0.92025182    -0.66900
O131        O  0.92477095  0.19955947  0.85745279    -0.66500
O132        O  0.07057053  0.33734536  0.83968286    -0.57800
O133        O  0.07093538  0.19992861  0.83962470    -0.70300
O134        O  0.92441171  0.33713532  0.85752816    -0.69000
Cu135      Cu  0.01819553  0.26850015  0.91348909     1.04600
Cu136      Cu  0.99701926  0.26849585  0.84639132     1.04300
C137        C  0.91102929  0.35857908  0.89176447     0.97300
C138        C  0.10385539  0.17809428  0.86812280     0.96400
C139        C  0.10343224  0.35926685  0.86818004     0.88500
C140        C  0.91150708  0.17799654  0.89166437     0.94800
N141        N  0.24520910  0.48600851  0.88268377     0.00500
C142        C  0.27770250  0.50876106  0.84958683     0.03100
C143        C  0.32045751  0.56022050  0.85742448    -0.19800
C144        C  0.31495879  0.56951998  0.89680113    -0.20000
C145        C  0.26898245  0.52341356  0.91137524     0.03000
H146        H  0.35275646  0.58758266  0.83677389     0.16800
H147        H  0.34220142  0.60542176  0.91307023     0.16800
N148        N  0.24580680  0.05158375  0.88285180     0.00500
C149        C  0.27858402  0.02882819  0.84982754     0.03100
C150        C  0.32147757  0.97751045  0.85778044    -0.19800
C151        C  0.31576379  0.96830509  0.89715891    -0.18800
C152        C  0.26952409  0.01432079  0.91161564     0.03000
H153        H  0.35397878  0.95015998  0.83720284     0.16800
H154        H  0.34300908  0.93250675  0.91350496     0.16800
N155        N  0.77844185  0.04418239  0.87543023     0.00500
C156        C  0.73808951  0.02255015  0.84697154     0.03100
C157        C  0.69085550  0.97696056  0.86085282    -0.19800
C158        C  0.70267742  0.96944753  0.89950160    -0.20000
C159        C  0.75671182  0.01067506  0.90760615     0.03000
H160        H  0.65305162  0.95099618  0.84450040     0.16800
H161        H  0.67565355  0.93658450  0.91938889     0.16800
N162        N  0.77732721  0.49193015  0.87573800     0.00500
C163        C  0.73678515  0.51343236  0.84733249     0.03100
C164        C  0.68926035  0.55873030  0.86131839    -0.19800
C165        C  0.70110560  0.56619056  0.89997452    -0.20000
C166        C  0.75544377  0.52522431  0.90798041     0.03000
H167        H  0.65126270  0.58456287  0.84502823     0.16800
H168        H  0.67392333  0.59888039  0.91992301     0.16800
C169        C  0.15518755  0.41132393  0.86103490    -0.12400
C170        C  0.19727534  0.43245972  0.88847014    -0.27600
H171        H  0.15615330  0.43385658  0.83282380     0.16600
H172        H  0.19252687  0.41073771  0.91706315     0.17200
C173        C  0.19770034  0.10504897  0.88853344    -0.12400
C174        C  0.15581073  0.12617346  0.86100102    -0.27600
H175        H  0.19265485  0.12673033  0.91713742     0.16600
H176        H  0.15703384  0.10370470  0.83276177     0.17200
C177        C  0.83359940  0.09164156  0.86993299    -0.12400
C178        C  0.85775538  0.12770335  0.89877258    -0.27600
H179        H  0.85410935  0.10066679  0.84057512     0.16600
H180        H  0.83753147  0.12176550  0.92828050     0.17200
C181        C  0.83278454  0.44476633  0.87016057    -0.12400
C182        C  0.85698029  0.40860116  0.89893336    -0.27600
H183        H  0.85347123  0.43603354  0.84079969     0.16600
H184        H  0.83655866  0.41425251  0.92842902     0.17200
C185        C  0.79966288  0.52080451  0.05463267    -0.14500
C186        C  0.80452342  0.52276858  0.01976902     0.09600
C187        C  0.79882862  0.52249437  0.97922346     0.11400
C188        C  0.78425891  0.52236795  0.94567992    -0.15300
C189        C  0.79900515  0.01499746  0.05440935    -0.14500
C190        C  0.80445684  0.01316318  0.01955458     0.09600
C191        C  0.79942169  0.01353288  0.97896816     0.11400
C192        C  0.78526703  0.01366294  0.94536250    -0.15300
C193        C  0.25194287  0.51602481  0.95217781    -0.14500
C194        C  0.24700096  0.51410788  0.98704098     0.09600
C195        C  0.25261464  0.51441329  0.02759166     0.11400
C196        C  0.26714975  0.51455101  0.06114020    -0.15300
C197        C  0.25209631  0.02171936  0.95237942    -0.14500
C198        C  0.24675519  0.02366444  0.98723404     0.09600
C199        C  0.25188786  0.02339848  0.02781424     0.11400
C200        C  0.26607550  0.02332848  0.06141491    -0.15300
C201        C  0.21785759  0.94528353  0.13684226    -0.12400
C202        C  0.19365634  0.90926175  0.10799573    -0.27600
H203        H  0.19740844  0.93619924  0.16620533     0.16600
H204        H  0.21381662  0.91524855  0.07848054     0.17200
C205        C  0.89554139  0.91069768  0.14576255    -0.12400
C206        C  0.85361183  0.93175079  0.11823093    -0.27600
H207        H  0.89426494  0.93315510  0.17400477     0.16600
H208        H  0.85871142  0.91008632  0.08962348     0.17200
C209        C  0.19446408  0.62834385  0.10788966    -0.12400
C210        C  0.21858303  0.59212264  0.13665670    -0.27600
H211        H  0.21495262  0.62273404  0.07840243     0.16600
H212        H  0.19783581  0.60080509  0.16601154     0.17200
C213        C  0.89630885  0.62557798  0.14579236    -0.12400
C214        C  0.85424604  0.60440027  0.11835528    -0.27600
H215        H  0.89536679  0.60304613  0.17400359     0.16600
H216        H  0.85897204  0.62612658  0.08976335     0.17200
C217        C  0.79039990  0.55563226  0.30500160    -0.14500
C218        C  0.78542917  0.56394544  0.27075475     0.09600
C219        C  0.78239037  0.56294930  0.23007517     0.11400
C220        C  0.77983889  0.55243905  0.19589182    -0.15300
C221        C  0.30697472  0.54111318  0.19979866    -0.14500
C222        C  0.30168490  0.54843281  0.23440191     0.09600
C223        C  0.29488083  0.54797627  0.27523225     0.11400
C224        C  0.28660991  0.53963779  0.30964609    -0.15300
C225        C  0.77856786  0.98357612  0.19567134    -0.14500
C226        C  0.78133000  0.97336867  0.22987394     0.09600
C227        C  0.78457433  0.97271381  0.27054519     0.11400
C228        C  0.78965412  0.98127981  0.30476426    -0.15300
C229        C  0.68084080  0.90549550  0.40754623    -0.12400
C230        C  0.70396097  0.93834483  0.37593537    -0.27600
H231        H  0.70525467  0.91134672  0.43484336     0.16600
H232        H  0.67991809  0.92886388  0.34865708     0.17200
C233        C  0.37244053  0.62868868  0.41003447    -0.12400
C234        C  0.35793464  0.59204402  0.37935445    -0.27600
H235        H  0.34319019  0.62323436  0.43736018     0.16600
H236        H  0.38661826  0.60073512  0.35195180     0.17200
C237        C  0.68134760  0.63188586  0.40762679    -0.12400
C238        C  0.70451489  0.59888017  0.37607221    -0.27600
H239        H  0.70580545  0.62621776  0.43492540     0.16600
H240        H  0.68045178  0.60816798  0.34877870     0.17200
C241        C  0.30582460  0.99664396  0.20007473    -0.14500
C242        C  0.30069177  0.98912272  0.23466059     0.09600
C243        C  0.29399365  0.98930337  0.27549051     0.11400
C244        C  0.28572038  0.99736140  0.30992873    -0.15300
C245        C  0.35730594  0.94465165  0.37948345    -0.12400
C246        C  0.37185045  0.90783711  0.41007614    -0.27600
H247        H  0.38606934  0.93620124  0.35207285     0.16600
H248        H  0.34249044  0.91307151  0.43738853     0.17200
C249        C  0.76459664  0.49737674  0.69716457    -0.14500
C250        C  0.75636915  0.48900225  0.73157831     0.09600
C251        C  0.74963400  0.48851254  0.77241195     0.11400
C252        C  0.74439768  0.49581727  0.80701857    -0.15300
C253        C  0.75706765  0.52366629  0.55587881    -0.14500
C254        C  0.75079384  0.52218548  0.52136136     0.09600
C255        C  0.75385329  0.52164855  0.48050654     0.11400
C256        C  0.76522065  0.52160355  0.44590666    -0.15300
C257        C  0.26110087  0.48130510  0.70180269    -0.14500
C258        C  0.26606441  0.47295731  0.73604789     0.09600
C259        C  0.26912085  0.47389202  0.77672853     0.11400
C260        C  0.27172293  0.48434351  0.81091668    -0.15300
C261        C  0.28627191  0.51536452  0.56089437    -0.14500
C262        C  0.29759271  0.51531125  0.52629048     0.09600
C263        C  0.30057695  0.51477462  0.48543525     0.11400
C264        C  0.29424001  0.51331355  0.45092225    -0.15300
C265        C  0.76600253  0.03974573  0.69685256    -0.14500
C266        C  0.75764715  0.04775334  0.73129053     0.09600
C267        C  0.75082968  0.04789127  0.77211648     0.11400
C268        C  0.74560396  0.04036412  0.80669929    -0.15300
C269        C  0.75792878  0.01397408  0.55558237    -0.14500
C270        C  0.75119996  0.01537135  0.52110520     0.09600
C271        C  0.75378049  0.01585706  0.48025792     0.11400
C272        C  0.76485611  0.01587128  0.44563952    -0.15300
C273        C  0.37014765  0.40507833  0.59917347    -0.12400
C274        C  0.34700418  0.43809565  0.63072772    -0.27600
H275        H  0.34568185  0.41075018  0.57187710     0.16600
H276        H  0.37107512  0.42880614  0.65801972     0.17200
C277        C  0.67962499  0.12909942  0.59670344    -0.12400
C278        C  0.69432714  0.09237734  0.62730954    -0.27600
H279        H  0.70890823  0.12384082  0.56936977     0.16600
H280        H  0.66563917  0.10086266  0.65473886     0.17200
C281        C  0.67897182  0.40822764  0.59676083    -0.12400
C282        C  0.69336086  0.44493298  0.62743415    -0.27600
H283        H  0.70828140  0.41366459  0.56945132     0.16600
H284        H  0.66461468  0.43626655  0.65482115     0.17200
C285        C  0.27263908  0.05304487  0.81112067    -0.14500
C286        C  0.26999199  0.06333273  0.77692226     0.09600
C287        C  0.26683162  0.06405896  0.73624937     0.11400
C288        C  0.26178913  0.05552568  0.70202605    -0.15300
C289        C  0.29374419  0.02305958  0.45120754    -0.14500
C290        C  0.30040683  0.02161068  0.48568886     0.09600
C291        C  0.29774924  0.02108272  0.52653530     0.11400
C292        C  0.28662902  0.02103889  0.56114967    -0.15300
C293        C  0.37054595  0.13144864  0.59926421    -0.12400
C294        C  0.34745204  0.09856416  0.63086729    -0.27600
H295        H  0.34611082  0.12562006  0.57197107     0.16600
H296        H  0.37150917  0.10802173  0.65814419     0.17200
loop_ 
_geom_bond_atom_site_label_1 
_geom_bond_atom_site_label_2 
_geom_bond_distance 
_geom_bond_site_symmetry_2 
_ccdc_geom_bond_type 
N1            C5   1.361       .  A
N1            C2   1.355       .  A
N1          C294   1.449       .  S
C2            C3   1.379   1_545  A
C2          C288   1.440       .  S
C3            C4   1.374       .  A
C3            H6   1.082       .  S
C4            C5   1.380   1_565  A
C4            H7   1.082       .  S
C5          C292   1.440       .  S
O8          Cu16   2.004       .  S
O8           C18   1.276       .  A
O9          Cu16   2.004       .  S
O9           C19   1.276       .  A
O10         Cu16   2.004       .  S
O10          C20   1.276       .  A
O11         Cu16   2.004       .  S
O11          C21   1.276       .  A
O12         Cu17   2.018       .  S
O12          C21   1.279       .  A
O13         Cu17   2.016       .  S
O13          C20   1.279       .  A
O14         Cu17   2.019       .  S
O14          C19   1.279       .  A
O15         Cu17   2.017       .  S
O15          C18   1.279       .  A
Cu16        Cu17   2.375       .  S
C18         C273   1.475       .  S
C19         C277   1.475       .  S
C20         C293   1.475       .  S
C21         C281   1.475       .  S
N22          C26   1.361       .  A
N22          C23   1.355       .  A
N22         C278   1.449       .  S
C23          C24   1.379   1_545  A
C23         C265   1.441       .  S
C24          C25   1.374       .  A
C24          H27   1.082       .  S
C25          C26   1.380   1_565  A
C25          H28   1.082       .  S
C26         C269   1.440       .  S
N29          C33   1.355       .  A
N29          C30   1.361       .  A
N29         C274   1.449       .  S
C30          C31   1.380       .  A
C30         C261   1.440       .  S
C31          C32   1.374       .  A
C31          H34   1.082       .  S
C32          C33   1.379       .  A
C32          H35   1.082       .  S
C33         C257   1.440       .  S
N36          C40   1.355       .  A
N36          C37   1.361       .  A
N36         C282   1.449       .  S
C37          C38   1.380       .  A
C37         C253   1.440       .  S
C38          C39   1.374       .  A
C38          H41   1.082       .  S
C39          C40   1.379       .  A
C39          H42   1.082       .  S
C40         C249   1.441       .  S
N43          C47   1.355   1_565  A
N43          C44   1.361   1_565  A
N43         C245   1.449       .  S
C44          C45   1.380       .  A
C44         C289   1.440       .  S
C45          C46   1.374       .  A
C45          H48   1.082       .  S
C46          C47   1.379       .  A
C46          H49   1.082       .  S
C47         C244   1.441   1_545  S
O50         Cu58   2.018       .  S
O50          C60   1.279       .  A
O51         Cu58   2.016       .  S
O51          C61   1.279       .  A
O52         Cu58   2.017       .  S
O52          C62   1.279       .  A
O53         Cu58   2.019       .  S
O53          C63   1.279       .  A
O54         Cu59   2.004       .  S
O54          C63   1.276       .  A
O55         Cu59   2.004       .  S
O55          C62   1.276       .  A
O56         Cu59   2.004       .  S
O56          C61   1.276       .  A
O57         Cu59   2.004       .  S
O57          C60   1.276       .  A
Cu58        Cu59   2.375       .  S
C60         C233   1.475       .  S
C61         C229   1.475       .  S
C62         C237   1.475       .  S
C63         C246   1.475       .  S
N64          C68   1.361   1_565  A
N64          C65   1.355   1_565  A
N64         C230   1.449       .  S
C65          C66   1.379       .  A
C65         C228   1.440   1_545  S
C66          C67   1.374       .  A
C66          H69   1.082       .  S
C67          C68   1.380       .  A
C67          H70   1.082       .  S
C68         C272   1.440       .  S
N71          C75   1.361       .  A
N71          C72   1.355       .  A
N71         C234   1.449       .  S
C72          C73   1.379       .  A
C72         C224   1.441       .  S
C73          C74   1.374       .  A
C73          H76   1.082       .  S
C74          C75   1.380       .  A
C74          H77   1.082       .  S
C75         C264   1.440       .  S
N78          C82   1.355       .  A
N78          C79   1.361       .  A
N78         C238   1.449       .  S
C79          C80   1.380       .  A
C79         C256   1.440       .  S
C80          C81   1.374       .  A
C80          H83   1.082       .  S
C81          C82   1.379       .  A
C81          H84   1.082       .  S
C82         C217   1.440       .  S
O85         Cu93   2.016   1_655  S
O85          C95   1.279       .  A
O86         Cu93   2.013       .  S
O86          C96   1.277       .  A
O87         Cu93   2.013       .  S
O87          C97   1.277       .  A
O88         Cu93   2.015   1_655  S
O88          C98   1.279       .  A
O89         Cu94   2.011   1_655  S
O89          C98   1.277       .  A
O90         Cu94   2.013       .  S
O90          C97   1.279       .  A
O91         Cu94   2.013       .  S
O91          C96   1.279       .  A
O92         Cu94   2.011   1_655  S
O92          C95   1.277       .  A
Cu93        Cu94   2.374       .  S
C95         C213   1.478       .  S
C96         C202   1.477       .  S
C97         C209   1.477       .  S
C98         C205   1.478       .  S
N99         C103   1.360   1_565  A
N99         C100   1.355   1_565  A
N99         C201   1.449       .  S
C100        C101   1.379       .  A
C100        C241   1.441   1_545  S
C101        C102   1.375       .  A
C101        H104   1.082       .  S
C102        C103   1.381       .  A
C102        H105   1.082       .  S
C103        C200   1.440       .  S
N106        C110   1.360       .  A
N106        C107   1.355       .  A
N106        C210   1.449       .  S
C107        C108   1.379       .  A
C107        C221   1.441       .  S
C108        C109   1.375       .  A
C108        H111   1.082       .  S
C109        C110   1.381       .  A
C109        H112   1.082       .  S
C110        C196   1.440       .  S
N113        C117   1.355   1_565  A
N113        C114   1.360   1_565  A
N113        C206   1.449       .  S
C114        C115   1.380       .  A
C114        C225   1.439   1_545  S
C115        C116   1.374       .  A
C115        H118   1.082       .  S
C116        C117   1.379       .  A
C116        H119   1.082       .  S
C117        C189   1.441       .  S
N120        C124   1.355       .  A
N120        C121   1.360       .  A
N120        C214   1.449       .  S
C121        C122   1.380       .  A
C121        C220   1.439       .  S
C122        C123   1.374       .  A
C122        H125   1.082       .  S
C123        C124   1.379       .  A
C123        H126   1.082       .  S
C124        C185   1.441       .  S
O127       Cu135   2.013   1_655  S
O127        C137   1.277       .  A
O128       Cu135   2.015       .  S
O128        C138   1.279       .  A
O129       Cu135   2.016       .  S
O129        C139   1.279       .  A
O130       Cu135   2.013   1_655  S
O130        C140   1.277       .  A
O131       Cu136   2.013       .  S
O131        C140   1.279       .  A
O132       Cu136   2.011   1_455  S
O132        C139   1.277       .  A
O133       Cu136   2.011   1_455  S
O133        C138   1.277       .  A
O134       Cu136   2.013       .  S
O134        C137   1.279       .  A
Cu135      Cu136   2.374   1_455  S
C137        C182   1.477       .  S
C138        C174   1.478       .  S
C139        C169   1.478       .  S
C140        C178   1.477       .  S
N141        C145   1.355       .  A
N141        C142   1.360       .  A
N141        C170   1.449       .  S
C142        C143   1.380       .  A
C142        C260   1.439       .  S
C143        C144   1.374       .  A
C143        H146   1.082       .  S
C144        C145   1.379       .  A
C144        H147   1.082       .  S
C145        C193   1.441       .  S
N148        C152   1.355       .  A
N148        C149   1.360       .  A
N148        C173   1.449       .  S
C149        C150   1.380   1_545  A
C149        C285   1.439       .  S
C150        C151   1.374       .  A
C150        H153   1.082       .  S
C151        C152   1.379   1_565  A
C151        H154   1.082       .  S
C152        C197   1.441       .  S
N155        C159   1.360       .  A
N155        C156   1.355       .  A
N155        C177   1.449       .  S
C156        C157   1.379   1_545  A
C156        C268   1.441       .  S
C157        C158   1.375       .  A
C157        H160   1.082       .  S
C158        C159   1.381   1_565  A
C158        H161   1.082       .  S
C159        C192   1.440       .  S
N162        C166   1.360       .  A
N162        C163   1.355       .  A
N162        C181   1.449       .  S
C163        C164   1.379       .  A
C163        C252   1.441       .  S
C164        C165   1.375       .  A
C164        H167   1.082       .  S
C165        C166   1.381       .  A
C165        H168   1.082       .  S
C166        C188   1.440       .  S
C169        C170   1.346       .  D
C169        H171   1.081       .  S
C170        H172   1.087       .  S
C173        C174   1.346       .  D
C173        H175   1.087       .  S
C174        H176   1.081       .  S
C177        C178   1.346       .  D
C177        H179   1.087       .  S
C178        H180   1.081       .  S
C181        C182   1.346       .  D
C181        H183   1.087       .  S
C182        H184   1.081       .  S
C185        C186   1.205       .  T
C186        C187   1.411   1_554  S
C187        C188   1.206       .  T
C189        C190   1.205       .  T
C190        C191   1.411   1_554  S
C191        C192   1.205       .  T
C193        C194   1.205       .  T
C194        C195   1.411   1_556  S
C195        C196   1.206       .  T
C197        C198   1.205       .  T
C198        C199   1.411   1_556  S
C199        C200   1.205       .  T
C201        C202   1.346       .  D
C201        H203   1.087       .  S
C202        H204   1.080       .  S
C205        C206   1.346       .  D
C205        H207   1.081       .  S
C206        H208   1.087       .  S
C209        C210   1.346       .  D
C209        H211   1.081       .  S
C210        H212   1.087       .  S
C213        C214   1.346       .  D
C213        H215   1.081       .  S
C214        H216   1.087       .  S
C217        C218   1.205       .  T
C218        C219   1.411       .  S
C219        C220   1.205       .  T
C221        C222   1.205       .  T
C222        C223   1.411       .  S
C223        C224   1.205       .  T
C225        C226   1.205       .  T
C226        C227   1.411       .  S
C227        C228   1.205       .  T
C229        C230   1.345       .  D
C229        H231   1.079       .  S
C230        H232   1.087       .  S
C233        C234   1.345       .  D
C233        H235   1.080       .  S
C234        H236   1.087       .  S
C237        C238   1.345       .  D
C237        H239   1.080       .  S
C238        H240   1.087       .  S
C241        C242   1.205       .  T
C242        C243   1.411       .  S
C243        C244   1.205       .  T
C245        C246   1.345       .  D
C245        H247   1.087       .  S
C246        H248   1.080       .  S
C249        C250   1.205       .  T
C250        C251   1.411       .  S
C251        C252   1.205       .  T
C253        C254   1.205       .  T
C254        C255   1.411       .  S
C255        C256   1.205       .  T
C257        C258   1.205       .  T
C258        C259   1.411       .  S
C259        C260   1.205       .  T
C261        C262   1.205       .  T
C262        C263   1.411       .  S
C263        C264   1.205       .  T
C265        C266   1.205       .  T
C266        C267   1.411       .  S
C267        C268   1.205       .  T
C269        C270   1.205       .  T
C270        C271   1.411       .  S
C271        C272   1.205       .  T
C273        C274   1.345       .  D
C273        H275   1.080       .  S
C274        H276   1.087       .  S
C277        C278   1.345       .  D
C277        H279   1.080       .  S
C278        H280   1.087       .  S
C281        C282   1.345       .  D
C281        H283   1.080       .  S
C282        H284   1.087       .  S
C285        C286   1.205       .  T
C286        C287   1.410       .  S
C287        C288   1.205       .  T
C289        C290   1.205       .  T
C290        C291   1.411       .  S
C291        C292   1.205       .  T
C293        C294   1.345       .  D
C293        H295   1.079       .  S
C294        H296   1.087       .  S
