geometry optimzed in LAMMPS
_audit_creation_date              2020-11-30 
_audit_creation_method            'lammps2cif' 
_symmetry_space_group_name_H-M    'P1' 
_symmetry_Int_Tables_number       1 
_symmetry_cell_setting            triclinic 
loop_ 
_symmetry_equiv_pos_as_xyz 
  x,y,z 
_cell_length_a                    35.23912535 
_cell_length_b                    35.07607520272886 
_cell_length_c                    27.545243476699966 
_cell_angle_alpha                 89.71746590677608 
_cell_angle_beta                  90.70193640572627 
_cell_angle_gamma                 90.22388014654418 
loop_ 
_atom_site_label 
_atom_site_type_symbol 
_atom_site_fract_x 
_atom_site_fract_y 
_atom_site_fract_z 
_atom_site_charge 
C1          C  0.32328093  0.04939384  0.59821709     0.05700
C2          C  0.35307082  0.07607931  0.59959760    -0.10400
C3          C  0.35439875  0.10441785  0.63579996     0.03200
C4          C  0.32582198  0.10495981  0.67092116    -0.08900
C5          C  0.29604214  0.07840702  0.66958871     0.05700
C6          C  0.29475449  0.05068572  0.63317085    -0.08400
H7          H  0.37521937  0.07412137  0.57288780     0.11300
H8          H  0.32653257  0.12637810  0.69918514     0.08900
H9          H  0.27172858  0.03009136  0.63215838     0.08700
O10         O  0.44763527  0.26577188  0.55306165    -0.70300
O11         O  0.53202777  0.19138300  0.58329948    -0.71300
O12         O  0.45235161  0.18528040  0.56574986    -0.59900
O13         O  0.52693842  0.27181799  0.56953401    -0.68300
O14         O  0.51744284  0.27890007  0.64848821    -0.67900
O15         O  0.44203253  0.19202866  0.64454624    -0.59100
O16         O  0.52176588  0.19862675  0.66203096    -0.71700
O17         O  0.43799507  0.27239567  0.63201643    -0.70400
Cu18       Cu  0.49011104  0.22825544  0.56517440     1.04600
Cu19       Cu  0.47946668  0.23567340  0.64951396     1.04300
C20         C  0.42972546  0.28101732  0.58802883     0.95900
C21         C  0.54019299  0.18339762  0.62761232     0.95000
C22         C  0.43513431  0.17518170  0.60425859     0.87200
C23         C  0.53383735  0.28915541  0.60931454     0.93400
C24         C  0.64799055  0.04673619  0.59561868     0.05700
C25         C  0.67052305  0.04794831  0.63771125    -0.10400
C26         C  0.66718220  0.07831138  0.67016638     0.03200
C27         C  0.64082763  0.10746523  0.66061196    -0.08900
C28         C  0.61779946  0.10630211  0.61830635     0.05700
C29         C  0.62206102  0.07596761  0.58577592    -0.08400
H30         H  0.69067546  0.02530466  0.64517949     0.11300
H31         H  0.63883726  0.13105874  0.68564487     0.08900
H32         H  0.60462547  0.07471663  0.55310063     0.08700
C33         C  0.32335953  0.40898721  0.56056606     0.05700
C34         C  0.35056532  0.38004767  0.56516773    -0.10400
C35         C  0.34933606  0.35431474  0.60461498     0.03200
C36         C  0.32069103  0.35832009  0.63928167    -0.08900
C37         C  0.29342040  0.38707204  0.63446851     0.05700
C38         C  0.29476329  0.41231847  0.59508655    -0.08400
H39         H  0.37306303  0.37849223  0.53885045     0.11300
H40         H  0.31964473  0.33905156  0.67015194     0.08900
H41         H  0.27382067  0.43478257  0.59157818     0.08700
C42         C  0.65721637  0.40028310  0.68640965     0.05700
C43         C  0.62898827  0.37203354  0.68694839    -0.10400
C44         C  0.60220256  0.36952240  0.64894389     0.03200
C45         C  0.60321670  0.39658562  0.61101287    -0.08900
C46         C  0.63112404  0.42518087  0.61067811     0.05700
C47         C  0.65819135  0.42690656  0.64832293    -0.08400
H48         H  0.62854095  0.35129004  0.71626491     0.11300
H49         H  0.58229947  0.39564352  0.58188039     0.08900
H50         H  0.68016051  0.44863455  0.64772251     0.08700
C51         C  0.32373742  0.91480256  0.42539204     0.05700
C52         C  0.35226874  0.88709272  0.42760921    -0.10400
C53         C  0.35504421  0.85924214  0.39129102     0.03200
C54         C  0.32815689  0.85907568  0.35297955    -0.08900
C55         C  0.29941466  0.88661993  0.35080829     0.05700
C56         C  0.29733340  0.91452052  0.38694279    -0.08400
H57         H  0.37256427  0.88739745  0.45751909     0.11300
H58         H  0.32887968  0.83726975  0.32533756     0.08900
H59         H  0.27521049  0.93590901  0.38517314     0.08700
O60         O  0.44027977  0.77170066  0.40771431    -0.70300
O61         O  0.51700395  0.68882043  0.42666054    -0.71300
O62         O  0.52116737  0.76887097  0.41222689    -0.59900
O63         O  0.43670949  0.69126520  0.42119968    -0.68300
O64         O  0.43884810  0.68319414  0.34142262    -0.67900
O65         O  0.52256062  0.76055742  0.33245239    -0.59100
O66         O  0.51955938  0.68039853  0.34695371    -0.71700
O67         O  0.44169023  0.76350183  0.32794234    -0.70400
Cu68       Cu  0.47869586  0.73052442  0.41969881     1.04600
Cu69       Cu  0.48071603  0.72166695  0.33439456     1.04300
C70         C  0.42857380  0.78053553  0.36504951     0.95900
C71         C  0.53047761  0.67159588  0.39005030     0.95000
C72         C  0.53540367  0.77660649  0.37078368     0.87200
C73         C  0.42467871  0.67483424  0.38262192     0.93400
C74         C  0.64813406  0.90410751  0.43535740     0.05700
C75         C  0.61939709  0.87651910  0.43781395    -0.10400
C76         C  0.61487858  0.84937736  0.40085346     0.03200
C77         C  0.64045147  0.84964611  0.36177592    -0.08900
C78         C  0.66940387  0.87718775  0.35950075     0.05700
C79         C  0.67310065  0.90439343  0.39627353    -0.08400
H80         H  0.59997487  0.87671385  0.46805276     0.11300
H81         H  0.63832601  0.82846526  0.33342720     0.08900
H82         H  0.69518836  0.92594968  0.39427755     0.08700
C83         C  0.32252922  0.54206279  0.38519363     0.05700
C84         C  0.34925976  0.57176376  0.38547168    -0.10400
C85         C  0.34853817  0.59984917  0.34875740     0.03200
C86         C  0.32087752  0.59748849  0.31168752    -0.08900
C87         C  0.29382865  0.56807548  0.31173923     0.05700
C88         C  0.29471427  0.54038545  0.34850884    -0.08400
H89         H  0.37108117  0.57225956  0.41350124     0.11300
H90         H  0.32026327  0.61870135  0.28291542     0.08900
H91         H  0.27397698  0.51745281  0.34839734     0.08700
C92         C  0.66781919  0.56742079  0.34671822     0.05700
C93         C  0.63838044  0.59356509  0.33890510    -0.10400
C94         C  0.60842069  0.59620560  0.37183564     0.03200
C95         C  0.60776467  0.57139589  0.41224014    -0.08900
C96         C  0.63704638  0.54501414  0.41997190     0.05700
C97         C  0.66713319  0.54315880  0.38726547    -0.08400
H98         H  0.63915311  0.61238389  0.30756905     0.11300
H99         H  0.58440344  0.57209043  0.43738906     0.08900
H100        H  0.68990565  0.52291485  0.39333154     0.08700
O101        O  0.94987302  0.69860661  0.07959738    -0.70300
O102        O  0.03305101  0.77716604  0.09601431    -0.71300
O103        O  0.02967299  0.69611185  0.09209998    -0.59500
O104        O  0.95277908  0.77985181  0.08247878    -0.68300
O105        O  0.94505540  0.77767900  0.16227456    -0.67900
O106        O  0.02311391  0.69408831  0.17210388    -0.59100
O107        O  0.02538159  0.77485213  0.17582933    -0.71700
O108        O  0.94319354  0.69650653  0.15956147    -0.70400
Cu109      Cu  0.99157344  0.73809200  0.08475724     1.04600
Cu110      Cu  0.98389906  0.73579562  0.17021030     1.04300
C111        C  0.93387952  0.68475057  0.11721360     0.95900
C112        C  0.04247250  0.78809764  0.13877895     0.95000
C113        C  0.03838963  0.68171110  0.13342908     0.87200
C114        C  0.93656981  0.79184711  0.12063999     0.93400
C115        C  0.17513329  0.88875159  0.16393036     0.05700
C116        C  0.14693700  0.86077015  0.15763106    -0.10400
C117        C  0.12147897  0.86272705  0.11778642     0.03200
C118        C  0.12516062  0.89264381  0.08413843    -0.08900
C119        C  0.15297216  0.92084523  0.09067924     0.05700
C120        C  0.17797801  0.91885122  0.13050791    -0.08400
H121        H  0.14528274  0.83739741  0.18337320     0.11300
H122        H  0.10580686  0.89442837  0.05329572     0.08900
H123        H  0.19950806  0.94070088  0.13555008     0.08700
C124        C  0.16025419  0.56741876  0.13608888     0.05700
C125        C  0.15937786  0.54061809  0.09850138    -0.10400
C126        C  0.13232240  0.54373402  0.06098340     0.03200
C127        C  0.10610054  0.57367329  0.06122392    -0.08900
C128        C  0.10633173  0.60039445  0.09908105     0.05700
C129        C  0.13380419  0.59715338  0.13640281    -0.08400
H130        H  0.17991245  0.51767865  0.09818118     0.11300
H131        H  0.08537690  0.57609972  0.03195590     0.08900
H132        H  0.13544276  0.61815490  0.16504786     0.08700
C133        C  0.82401544  0.91604497  0.10830494     0.05700
C134        C  0.85408481  0.88991502  0.11101131    -0.10400
C135        C  0.85569430  0.86245570  0.14859909     0.03200
C136        C  0.82710879  0.86211177  0.18367351    -0.08900
C137        C  0.79697177  0.88796353  0.18100605     0.05700
C138        C  0.79542677  0.91492814  0.14329793    -0.08400
H139        H  0.87626753  0.89157482  0.08424787     0.11300
H140        H  0.82805534  0.84130408  0.21291923     0.08900
H141        H  0.77212427  0.93499605  0.14124391     0.08700
C142        C  0.80605960  0.57278593  0.18185526     0.05700
C143        C  0.83270682  0.60251164  0.18332124    -0.10400
C144        C  0.85928736  0.60701026  0.14606406     0.03200
C145        C  0.85932650  0.58061395  0.10761782    -0.08900
C146        C  0.83283640  0.55065869  0.10633210     0.05700
C147        C  0.80618926  0.54688464  0.14337423    -0.08400
H148        H  0.83245713  0.62247028  0.21326326     0.11300
H149        H  0.88020903  0.58269202  0.07921106     0.08900
H150        H  0.78555315  0.52387104  0.14220767     0.08700
O151        O  0.01392268  0.27771143  0.81783643    -0.70300
O152        O  0.93749442  0.19167160  0.80970133    -0.71300
O153        O  0.93336961  0.27250664  0.81395763    -0.59900
O154        O  0.01830997  0.19693356  0.81222206    -0.68300
O155        O  0.01786490  0.19316214  0.89265929    -0.67900
O156        O  0.93230901  0.26965590  0.89443961    -0.59100
O157        O  0.93705787  0.18854600  0.89016098    -0.71700
O158        O  0.01257465  0.27384026  0.89825550    -0.70400
Cu159      Cu  0.97580614  0.23476530  0.81061326     1.04600
Cu160      Cu  0.97488983  0.23110720  0.89666055     1.04300
C161        C  0.02512540  0.28932439  0.85963621     0.95900
C162        C  0.92511090  0.17672194  0.84891303     0.95000
C163        C  0.91969534  0.28338370  0.85424709     0.87200
C164        C  0.03173908  0.18332110  0.85186813     0.93400
C165        C  0.15662470  0.39726548  0.80059667     0.05700
C166        C  0.12766058  0.37000923  0.79640078    -0.10400
C167        C  0.09934502  0.36727345  0.83161600     0.03200
C168        C  0.09977267  0.39315144  0.87065635    -0.08900
C169        C  0.12858740  0.42071518  0.87472600     0.05700
C170        C  0.15707718  0.42263108  0.83972539    -0.08400
H171        H  0.12765699  0.35028589  0.76619556     0.11300
H172        H  0.07766782  0.39229151  0.89761300     0.08900
H173        H  0.17959443  0.44365697  0.84303974     0.08700
C174        C  0.14662498  0.06006192  0.92383455     0.05700
C175        C  0.17163390  0.05973214  0.88478779    -0.10400
C176        C  0.16734429  0.08601740  0.84675413     0.03200
C177        C  0.13773837  0.11262977  0.84763935    -0.08900
C178        C  0.11205524  0.11294625  0.88658124     0.05700
C179        C  0.11715622  0.08675036  0.92486533    -0.08400
H180        H  0.19433998  0.03896428  0.88392767     0.11300
H181        H  0.13528332  0.13319709  0.81835766     0.08900
H182        H  0.09773749  0.08666656  0.95511377     0.08700
C183        C  0.79406344  0.07240015  0.85323306     0.05700
C184        C  0.82396316  0.09879477  0.85081966    -0.10400
C185        C  0.85320777  0.09857130  0.88611858     0.03200
C186        C  0.85178454  0.07165377  0.92409152    -0.08900
C187        C  0.82209392  0.04496694  0.92647089     0.05700
C188        C  0.79323740  0.04539234  0.89094013    -0.08400
H189        H  0.82365465  0.12002872  0.82215812     0.11300
H190        H  0.87386488  0.07144796  0.95185825     0.08900
H191        H  0.77012758  0.02495402  0.89278421     0.08700
C192        C  0.79457877  0.39433170  0.85726987     0.05700
C193        C  0.82084876  0.36437610  0.85676337    -0.10400
C194        C  0.84991168  0.36221741  0.89233699     0.03200
C195        C  0.85177355  0.39019422  0.92864942    -0.08900
C196        C  0.82569312  0.42024927  0.92902013     0.05700
C197        C  0.79713334  0.42227252  0.89332112    -0.08400
H198        H  0.81806717  0.34261848  0.82918798     0.11300
H199        H  0.87382174  0.38881026  0.95640392     0.08900
H200        H  0.77686478  0.44545589  0.89369519     0.08700
C201        C  0.05277673  0.32081546  0.86456587    -0.13800
C202        C  0.06992371  0.33705759  0.82634278    -0.29000
H203        H  0.06013166  0.32980652  0.90114969     0.15200
H204        H  0.06398554  0.32619116  0.79014008     0.15800
C205        C  0.08001009  0.14041704  0.88897011    -0.13800
C206        C  0.06374048  0.15630127  0.84935940    -0.29000
H207        H  0.06843403  0.14655122  0.92446640     0.15200
H208        H  0.07368270  0.14905620  0.81345992     0.15800
C209        C  0.88418430  0.12752865  0.88630711    -0.13800
C210        C  0.89613654  0.14613155  0.84630624    -0.29000
H211        H  0.89791082  0.13353522  0.92099654     0.15200
H212        H  0.88442742  0.13909914  0.81084081     0.15800
C213        C  0.88938246  0.31239133  0.85330109    -0.13800
C214        C  0.87837255  0.33096197  0.89333004    -0.29000
H215        H  0.87756118  0.32013089  0.81806453     0.15200
H216        H  0.89246060  0.32467527  0.92775240     0.15800
C217        C  0.83287518  0.52361280  0.06705385    -0.15900
C218        C  0.83200147  0.50046476  0.03477164     0.08200
C219        C  0.83017627  0.47286621  0.99755726     0.10000
C220        C  0.82822020  0.44900130  0.96619067    -0.16700
C221        C  0.82258448  0.94403010  0.06955532    -0.15900
C222        C  0.82173899  0.96723803  0.03691990     0.08200
C223        C  0.82121906  0.99428470  0.99845468     0.10000
C224        C  0.82127429  0.01731320  0.96560531    -0.16700
C225        C  0.13167716  0.51657322  0.02175237    -0.15900
C226        C  0.13086734  0.49432541  0.98840730     0.08200
C227        C  0.12986640  0.46861901  0.94894058     0.10000
C228        C  0.12914972  0.44680857  0.91512592    -0.16700
C229        C  0.15504596  0.95225129  0.05687752    -0.15900
C230        C  0.15495969  0.97813370  0.02787560     0.08200
C231        C  0.15312431  0.00770412  0.99292617     0.10000
C232        C  0.15051465  0.03211209  0.96207341    -0.16700
C233        C  0.09102098  0.83391319  0.10984542    -0.13800
C234        C  0.07350426  0.81593127  0.14655271    -0.29000
H235        H  0.08126951  0.82899643  0.07280660     0.15200
H236        H  0.08141133  0.82240233  0.18383818     0.15800
C237        C  0.90762895  0.82208439  0.11558489    -0.13800
C238        C  0.88678254  0.83396525  0.15317404    -0.29000
H239        H  0.90240159  0.83343610  0.07942797     0.15200
H240        H  0.89121594  0.82064918  0.18849798     0.15800
C241        C  0.06627008  0.65046293  0.13688503    -0.13800
C242        C  0.07864598  0.63221057  0.09722667    -0.29000
H243        H  0.07566570  0.64159299  0.17285022     0.15200
H244        H  0.06690708  0.63990462  0.06185466     0.15800
C245        C  0.90502649  0.65432965  0.11139977    -0.13800
C246        C  0.88738647  0.63862965  0.14978802    -0.29000
H247        H  0.89850407  0.64468730  0.07486272     0.15200
H248        H  0.89310561  0.65002544  0.18578100     0.15800
C249        C  0.69893900  0.56604465  0.31325985    -0.15900
C250        C  0.72448965  0.56613713  0.28447236     0.08200
C251        C  0.75370859  0.56744162  0.24977122     0.10000
C252        C  0.77795889  0.56943580  0.21928365    -0.16700
C253        C  0.18893094  0.56520134  0.17380316    -0.15900
C254        C  0.21295822  0.56465925  0.20540948     0.08200
C255        C  0.24113763  0.56517671  0.24239693     0.10000
C256        C  0.26518571  0.56628048  0.27395254    -0.16700
C257        C  0.76769409  0.88639719  0.21717663    -0.15900
C258        C  0.74412816  0.88383661  0.24851524     0.08200
C259        C  0.71738528  0.88042436  0.28622413     0.10000
C260        C  0.69517516  0.87815348  0.31917466    -0.16700
C261        C  0.56715987  0.80397971  0.36620295    -0.13800
C262        C  0.58334065  0.82123638  0.40477865    -0.29000
H263        H  0.57701338  0.81021093  0.32985236     0.15200
H264        H  0.57191393  0.81583837  0.44064622     0.15800
C265        C  0.39466832  0.64545044  0.38618511    -0.13800
C266        C  0.37751108  0.63065061  0.34655462    -0.29000
H267        H  0.38646676  0.63605443  0.42218241     0.15200
H268        H  0.38426544  0.64215643  0.31096919     0.15800
C269        C  0.55891239  0.64146219  0.39874046    -0.13800
C270        C  0.57826889  0.62498370  0.36274675    -0.29000
H271        H  0.56513660  0.63395327  0.43626682     0.15200
H272        H  0.57353802  0.63459358  0.32559656     0.15800
C273        C  0.20109667  0.88683408  0.20483521    -0.15900
C274        C  0.22315567  0.88607976  0.23874805     0.08200
C275        C  0.24936025  0.88594307  0.27812117     0.10000
C276        C  0.27201072  0.88619054  0.31140066    -0.16700
C277        C  0.38533730  0.82995851  0.39592850    -0.13800
C278        C  0.39923505  0.81022058  0.35826840    -0.29000
H279        H  0.39731288  0.82511401  0.43197474     0.15200
H280        H  0.38915548  0.81584533  0.32156868     0.15800
C281        C  0.68612348  0.40081112  0.72394616    -0.15900
C282        C  0.71073091  0.40000566  0.75481976     0.08200
C283        C  0.73985736  0.39817850  0.79054941     0.10000
C284        C  0.76481249  0.39636131  0.82089961    -0.16700
C285        C  0.63253127  0.45208727  0.57091131    -0.15900
C286        C  0.63373029  0.47388906  0.53688341     0.08200
C287        C  0.63511226  0.49882507  0.49639219     0.10000
C288        C  0.63614754  0.51986173  0.46158404    -0.16700
C289        C  0.26429100  0.39098990  0.67033428    -0.15900
C290        C  0.23987134  0.39412464  0.70033760     0.08200
C291        C  0.21115570  0.39701760  0.73543806     0.10000
C292        C  0.18643872  0.39816890  0.76528895    -0.16700
C293        C  0.32400131  0.51288842  0.42216911    -0.15900
C294        C  0.32500138  0.48835831  0.45299306     0.08200
C295        C  0.32554519  0.45985809  0.48939677     0.10000
C296        C  0.32515160  0.43611773  0.52121269    -0.16700
C297        C  0.69133443  0.07926539  0.71287496    -0.15900
C298        C  0.71309343  0.07808407  0.74708214     0.08200
C299        C  0.74003704  0.07558147  0.78550387     0.10000
C300        C  0.76410042  0.07357922  0.81702345    -0.16700
C301        C  0.65088298  0.01511759  0.56276750    -0.15900
C302        C  0.65209867  0.98879000  0.53487999     0.08200
C303        C  0.65211569  0.95843939  0.50144141     0.10000
C304        C  0.65094016  0.93319499  0.47192450    -0.16700
C305        C  0.39973674  0.30932937  0.57730266    -0.13800
C306        C  0.37865356  0.32452418  0.61274158    -0.29000
H307        H  0.39509637  0.31764662  0.53971227     0.15200
H308        H  0.38254746  0.31418987  0.64973270     0.15800
C309        C  0.57086672  0.15625223  0.64011410    -0.13800
C310        C  0.58918816  0.13609248  0.60632522    -0.29000
H311        H  0.57714675  0.15158360  0.67835138     0.15200
H312        H  0.58096867  0.13958627  0.56840394     0.15800
C313        C  0.56087682  0.32138243  0.60892068    -0.13800
C314        C  0.57373667  0.33821155  0.64970104    -0.29000
H315        H  0.57145137  0.33059022  0.57388520     0.15200
H316        H  0.56506374  0.32709876  0.68477252     0.15800
C317        C  0.26687776  0.07978029  0.70583871    -0.15900
C318        C  0.24311395  0.08158711  0.73693914     0.08200
C319        C  0.21598031  0.08388899  0.77421906     0.10000
C320        C  0.19343946  0.08540174  0.80680622    -0.16700
C321        C  0.32191024  0.94371144  0.46246684    -0.15900
C322        C  0.32130375  0.96790083  0.49354080     0.08200
C323        C  0.32146999  0.99627554  0.52995735     0.10000
C324        C  0.32213387  0.02048341  0.56103202    -0.16700
C325        C  0.40676657  0.14409017  0.60104988    -0.13800
C326        C  0.38510400  0.13368589  0.63882044    -0.29000
H327        H  0.40262692  0.13090981  0.56585424     0.15200
H328        H  0.38863475  0.14874232  0.67298540     0.15800
loop_ 
_geom_bond_atom_site_label_1 
_geom_bond_atom_site_label_2 
_geom_bond_distance 
_geom_bond_site_symmetry_2 
_ccdc_geom_bond_type 
C1            C2   1.404       .  A
C1            C6   1.401       .  A
C1          C324   1.445       .  S
C2            C3   1.412       .  A
C2            H7   1.082       .  S
C3            C4   1.405       .  A
C3          C326   1.490       .  S
C4            C5   1.401       .  A
C4            H8   1.085       .  S
C5            C6   1.401       .  A
C5          C317   1.443       .  S
C6            H9   1.084       .  S
O10         Cu18   2.020       .  S
O10          C20   1.279       .  A
O11         Cu18   2.023       .  S
O11          C21   1.281       .  A
O12         Cu18   2.007       .  S
O12          C22   1.276       .  A
O13         Cu18   2.004       .  S
O13          C23   1.276       .  A
O14         Cu19   2.019       .  S
O14          C23   1.280       .  A
O15         Cu19   2.021       .  S
O15          C22   1.280       .  A
O16         Cu19   2.007       .  S
O16          C21   1.276       .  A
O17         Cu19   2.005       .  S
O17          C20   1.278       .  A
Cu18        Cu19   2.374       .  S
C20         C305   1.479       .  S
C21         C309   1.480       .  S
C22         C325   1.479       .  S
C23         C313   1.476       .  S
C24          C25   1.398       .  A
C24          C29   1.399       .  A
C24         C301   1.440       .  S
C25          C26   1.400       .  A
C25          H30   1.085       .  S
C26          C27   1.406       .  A
C26         C297   1.444       .  S
C27          C28   1.413       .  A
C27          H31   1.083       .  S
C28          C29   1.404       .  A
C28         C310   1.488       .  S
C29          H32   1.085       .  S
C33          C34   1.403       .  A
C33          C38   1.400       .  A
C33         C296   1.441       .  S
C34          C35   1.410       .  A
C34          H39   1.083       .  S
C35          C36   1.406       .  A
C35         C306   1.487       .  S
C36          C37   1.400       .  A
C36          H40   1.084       .  S
C37          C38   1.398       .  A
C37         C289   1.441       .  S
C38          H41   1.085       .  S
C42          C43   1.401       .  A
C42          C47   1.402       .  A
C42         C281   1.443       .  S
C43          C44   1.404       .  A
C43          H48   1.085       .  S
C44          C45   1.409       .  A
C44         C314   1.485       .  S
C45          C46   1.402       .  A
C45          H49   1.083       .  S
C46          C47   1.402       .  A
C46         C285   1.444       .  S
C47          H50   1.084       .  S
C51          C52   1.402       .  A
C51          C56   1.401       .  A
C51         C321   1.445       .  S
C52          C53   1.406       .  A
C52          H57   1.084       .  S
C53          C54   1.410       .  A
C53         C277   1.488       .  S
C54          C55   1.403       .  A
C54          H58   1.082       .  S
C55          C56   1.402       .  A
C55         C276   1.444       .  S
C56          H59   1.085       .  S
O60         Cu68   2.007       .  S
O60          C70   1.278       .  A
O61         Cu68   2.001       .  S
O61          C71   1.276       .  A
O62         Cu68   2.020       .  S
O62          C72   1.280       .  A
O63         Cu68   2.018       .  S
O63          C73   1.278       .  A
O64         Cu69   2.006       .  S
O64          C73   1.278       .  A
O65         Cu69   2.006       .  S
O65          C72   1.276       .  A
O66         Cu69   2.022       .  S
O66          C71   1.280       .  A
O67         Cu69   2.021       .  S
O67          C70   1.279       .  A
Cu68        Cu69   2.374       .  S
C70         C278   1.480       .  S
C71         C269   1.476       .  S
C72         C261   1.478       .  S
C73         C265   1.478       .  S
C74          C75   1.400       .  A
C74          C79   1.399       .  A
C74         C304   1.440       .  S
C75          C76   1.404       .  A
C75          H80   1.085       .  S
C76          C77   1.412       .  A
C76         C262   1.488       .  S
C77          C78   1.404       .  A
C77          H81   1.082       .  S
C78          C79   1.400       .  A
C78         C260   1.444       .  S
C79          H82   1.085       .  S
C83          C84   1.402       .  A
C83          C88   1.400       .  A
C83         C293   1.441       .  S
C84          C85   1.408       .  A
C84          H89   1.083       .  S
C85          C86   1.405       .  A
C85         C266   1.485       .  S
C86          C87   1.402       .  A
C86          H90   1.084       .  S
C87          C88   1.400       .  A
C87         C256   1.442       .  S
C88          H91   1.085       .  S
C92          C93   1.401       .  A
C92          C97   1.401       .  A
C92         C249   1.442       .  S
C93          C94   1.404       .  A
C93          H98   1.085       .  S
C94          C95   1.410       .  A
C94         C270   1.487       .  S
C95          C96   1.402       .  A
C95          H99   1.083       .  S
C96          C97   1.402       .  A
C96         C288   1.444       .  S
C97         H100   1.084       .  S
O101       Cu109   2.020       .  S
O101        C111   1.279       .  A
O102       Cu109   2.022   1_455  S
O102        C112   1.280       .  A
O103       Cu109   2.004   1_455  S
O103        C113   1.278       .  A
O104       Cu109   2.008       .  S
O104        C114   1.276       .  A
O105       Cu110   2.021       .  S
O105        C114   1.280       .  A
O106       Cu110   2.016   1_455  S
O106        C113   1.278       .  A
O107       Cu110   2.005   1_455  S
O107        C112   1.276       .  A
O108       Cu110   2.005       .  S
O108        C111   1.278       .  A
Cu109      Cu110   2.374       .  S
C111        C245   1.479       .  S
C112        C234   1.477       .  S
C113        C241   1.477       .  S
C114        C237   1.479       .  S
C115        C116   1.404       .  A
C115        C120   1.401       .  A
C115        C273   1.444       .  S
C116        C117   1.411       .  A
C116        H121   1.083       .  S
C117        C118   1.403       .  A
C117        C233   1.486       .  S
C118        C119   1.400       .  A
C118        H122   1.085       .  S
C119        C120   1.400       .  A
C119        C229   1.441       .  S
C120        H123   1.085       .  S
C124        C125   1.402       .  A
C124        C129   1.402       .  A
C124        C253   1.442       .  S
C125        C126   1.402       .  A
C125        H130   1.084       .  S
C126        C127   1.402       .  A
C126        C225   1.444       .  S
C127        C128   1.405       .  A
C127        H131   1.084       .  S
C128        C129   1.408       .  A
C128        C242   1.485       .  S
C129        H132   1.083       .  S
C133        C134   1.405       .  A
C133        C138   1.403       .  A
C133        C221   1.447       .  S
C134        C135   1.411       .  A
C134        H139   1.082       .  S
C135        C136   1.404       .  A
C135        C238   1.490       .  S
C136        C137   1.400       .  A
C136        H140   1.085       .  S
C137        C138   1.402       .  A
C137        C257   1.444       .  S
C138        H141   1.084       .  S
C142        C143   1.401       .  A
C142        C147   1.400       .  A
C142        C252   1.442       .  S
C143        C144   1.406       .  A
C143        H148   1.085       .  S
C144        C145   1.410       .  A
C144        C246   1.487       .  S
C145        C146   1.403       .  A
C145        H149   1.083       .  S
C146        C147   1.401       .  A
C146        C217   1.442       .  S
C147        H150   1.085       .  S
O151       Cu159   2.023   1_455  S
O151        C161   1.281       .  A
O152       Cu159   2.023       .  S
O152        C162   1.279       .  A
O153       Cu159   2.004       .  S
O153        C163   1.276       .  A
O154       Cu159   2.005   1_455  S
O154        C164   1.276       .  A
O155       Cu160   2.024   1_455  S
O155        C164   1.280       .  A
O156       Cu160   2.024       .  S
O156        C163   1.280       .  A
O157       Cu160   2.005       .  S
O157        C162   1.277       .  A
O158       Cu160   1.999   1_455  S
O158        C161   1.275       .  A
Cu159      Cu160   2.374       .  S
C161        C201   1.476       .  S
C162        C210   1.480       .  S
C163        C213   1.478       .  S
C164        C206   1.478       .  S
C165        C166   1.400       .  A
C165        C170   1.401       .  A
C165        C292   1.441       .  S
C166        C167   1.403       .  A
C166        H171   1.085       .  S
C167        C168   1.411       .  A
C167        C202   1.486       .  S
C168        C169   1.403       .  A
C168        H172   1.083       .  S
C169        C170   1.402       .  A
C169        C228   1.444       .  S
C170        H173   1.085       .  S
C174        C175   1.399       .  A
C174        C179   1.401       .  A
C174        C232   1.441       .  S
C175        C176   1.399       .  A
C175        H180   1.085       .  S
C176        C177   1.403       .  A
C176        C320   1.443       .  S
C177        C178   1.412       .  A
C177        H181   1.082       .  S
C178        C179   1.406       .  A
C178        C205   1.490       .  S
C179        H182   1.085       .  S
C183        C184   1.402       .  A
C183        C188   1.403       .  A
C183        C300   1.444       .  S
C184        C185   1.408       .  A
C184        H189   1.083       .  S
C185        C186   1.407       .  A
C185        C209   1.488       .  S
C186        C187   1.403       .  A
C186        H190   1.084       .  S
C187        C188   1.403       .  A
C187        C224   1.447       .  S
C188        H191   1.084       .  S
C192        C193   1.403       .  A
C192        C197   1.401       .  A
C192        C284   1.443       .  S
C193        C194   1.411       .  A
C193        H198   1.083       .  S
C194        C195   1.405       .  A
C194        C214   1.489       .  S
C195        C196   1.401       .  A
C195        H199   1.084       .  S
C196        C197   1.400       .  A
C196        C220   1.442       .  S
C197        H200   1.085       .  S
C201        C202   1.344       .  D
C201        H203   1.085       .  S
C202        H204   1.087       .  S
C205        C206   1.346       .  D
C205        H207   1.087       .  S
C206        H208   1.085       .  S
C209        C210   1.349       .  D
C209        H211   1.087       .  S
C210        H212   1.085       .  S
C213        C214   1.345       .  D
C213        H215   1.085       .  S
C214        H216   1.087       .  S
C217        C218   1.207       .  T
C218        C219   1.414   1_554  S
C219        C220   1.207       .  T
C221        C222   1.210       .  T
C222        C223   1.419   1_554  S
C223        C224   1.210   1_565  T
C225        C226   1.208   1_554  T
C226        C227   1.416       .  S
C227        C228   1.208       .  T
C229        C230   1.206       .  T
C230        C231   1.413   1_564  S
C231        C232   1.206       .  T
C233        C234   1.344       .  D
C233        H235   1.087       .  S
C234        H236   1.086       .  S
C237        C238   1.346       .  D
C237        H239   1.085       .  S
C238        H240   1.087       .  S
C241        C242   1.347       .  D
C241        H243   1.085       .  S
C242        H244   1.087       .  S
C245        C246   1.347       .  D
C245        H247   1.085       .  S
C246        H248   1.087       .  S
C249        C250   1.207       .  T
C250        C251   1.414       .  S
C251        C252   1.207       .  T
C253        C254   1.207       .  T
C254        C255   1.414       .  S
C255        C256   1.207       .  T
C257        C258   1.208       .  T
C258        C259   1.415       .  S
C259        C260   1.208       .  T
C261        C262   1.345       .  D
C261        H263   1.085       .  S
C262        H264   1.087       .  S
C265        C266   1.347       .  D
C265        H267   1.086       .  S
C266        H268   1.087       .  S
C269        C270   1.344       .  D
C269        H271   1.085       .  S
C270        H272   1.087       .  S
C273        C274   1.208       .  T
C274        C275   1.416       .  S
C275        C276   1.208       .  T
C277        C278   1.348       .  D
C277        H279   1.087       .  S
C278        H280   1.085       .  S
C281        C282   1.207       .  T
C282        C283   1.415       .  S
C283        C284   1.208       .  T
C285        C286   1.208       .  T
C286        C287   1.415       .  S
C287        C288   1.208       .  T
C289        C290   1.206       .  T
C290        C291   1.412       .  S
C291        C292   1.206       .  T
C293        C294   1.206       .  T
C294        C295   1.412       .  S
C295        C296   1.206       .  T
C297        C298   1.208       .  T
C298        C299   1.416       .  S
C299        C300   1.208       .  T
C301        C302   1.205   1_545  T
C302        C303   1.411       .  S
C303        C304   1.205       .  T
C305        C306   1.347       .  D
C305        H307   1.085       .  S
C306        H308   1.087       .  S
C309        C310   1.345       .  D
C309        H311   1.085       .  S
C310        H312   1.087       .  S
C313        C314   1.344       .  D
C313        H315   1.086       .  S
C314        H316   1.087       .  S
C317        C318   1.207       .  T
C318        C319   1.414       .  S
C319        C320   1.207       .  T
C321        C322   1.209       .  T
C322        C323   1.417       .  S
C323        C324   1.209   1_565  T
C325        C326   1.346       .  D
C325        H327   1.084       .  S
C326        H328   1.087       .  S
