geometry optimzed in LAMMPS
_audit_creation_date              2020-11-30 
_audit_creation_method            'lammps2cif' 
_symmetry_space_group_name_H-M    'P1' 
_symmetry_Int_Tables_number       1 
_symmetry_cell_setting            triclinic 
loop_ 
_symmetry_equiv_pos_as_xyz 
  x,y,z 
_cell_length_a                    17.3018753 
_cell_length_b                    33.83610076041539 
_cell_length_c                    34.55576117372926 
_cell_angle_alpha                 89.03699073398148 
_cell_angle_beta                  90.39379597070644 
_cell_angle_gamma                 87.56314526014542 
loop_ 
_atom_site_label 
_atom_site_type_symbol 
_atom_site_fract_x 
_atom_site_fract_y 
_atom_site_fract_z 
_atom_site_charge 
C1          C  0.25917274  0.49653355  0.42212269    -0.01300
C2          C  0.76215198  0.50880047  0.56778390    -0.01300
O3          O  0.79311890  0.80734055  0.86936713    -0.56600
C4          C  0.61418921  0.76202706  0.86158246     0.76000
O5          O  0.79757486  0.84327879  0.78711692    -0.57800
C6          C  0.84297303  0.77927386  0.87427586     0.76000
C7          C  0.74298238  0.73129215  0.74401747     0.78400
Cd8        Cd  0.73605053  0.78258107  0.81022542     1.37500
O9          O  0.60826485  0.79211726  0.83936288    -0.56600
O10         O  0.80378658  0.73909435  0.76249760    -0.55400
C11         C  0.73459212  0.86274225  0.78044059     0.78400
O12         O  0.68037338  0.74707092  0.75605448    -0.57800
O13         O  0.67250090  0.73883313  0.85696855    -0.56200
O14         O  0.84874687  0.75409757  0.84755202    -0.56200
O15         O  0.67307896  0.84456523  0.78562967    -0.55400
O16         O  0.16416920  0.74269302  0.12485851    -0.56600
C17         C  0.35010786  0.76824722  0.10787879     0.76000
O18         O  0.18542060  0.83748500  0.19992437    -0.57800
C19         C  0.11148916  0.76970993  0.12182409     0.76000
C20         C  0.24607716  0.72011153  0.23524730     0.78400
Cd21       Cd  0.24291000  0.77712558  0.17123104     1.37500
O22         O  0.36158962  0.74774340  0.13857939    -0.56600
O23         O  0.19303474  0.72145571  0.20987230    -0.55400
C24         C  0.24648439  0.85675883  0.19965586     0.78400
O25         O  0.29807748  0.74500970  0.23127544    -0.57800
O26         O  0.29437785  0.79346580  0.10831441    -0.56200
O27         O  0.11472379  0.79815672  0.14506243    -0.56200
O28         O  0.30739022  0.83856530  0.18823735    -0.55400
O29         O  0.62959293  0.24830506  0.84057101    -0.56600
C30         C  0.87638752  0.23501846  0.87165476     0.76000
O31         O  0.82461082  0.16418301  0.79102880    -0.57800
C32         C  0.63463971  0.22420294  0.86905785     0.76000
C33         C  0.76231507  0.28444284  0.75328593     0.78400
Cd34       Cd  0.75827701  0.22480960  0.81448384     1.37500
O35         O  0.81743171  0.25819250  0.86869236    -0.56600
O36         O  0.77936001  0.29167350  0.78795154    -0.55400
C37         C  0.76326809  0.14644582  0.78351448     0.78400
O38         O  0.74346121  0.24956885  0.74650898    -0.57800
O39         O  0.88571221  0.20961198  0.84536029    -0.56200
O40         O  0.69109216  0.19940583  0.86923681    -0.56200
O41         O  0.69974643  0.16579330  0.78819236    -0.55400
O42         O  0.38031371  0.20422177  0.14318741    -0.56600
C43         C  0.13351660  0.22281149  0.12229343     0.76000
O44         O  0.20441018  0.15990305  0.20858384    -0.57800
C45         C  0.36609028  0.22821868  0.11526426     0.76000
C46         C  0.26871438  0.27919304  0.23515939     0.78400
Cd47       Cd  0.25800895  0.21917314  0.17718619     1.37500
O48         O  0.14036550  0.25069717  0.14591843    -0.56600
O49         O  0.32293212  0.27142102  0.21180739    -0.55400
C50         C  0.26879844  0.14075973  0.21126557     0.78400
O51         O  0.20962456  0.25858020  0.23255310    -0.57800
O52         O  0.17723150  0.19232813  0.12766784    -0.56200
O53         O  0.30589804  0.25046987  0.11785962    -0.56200
O54         O  0.32799696  0.15905235  0.20142104    -0.55400
C55         C  0.00666049  0.21624598  0.95997101     0.17200
C56         C  0.05430556  0.19849681  0.98866343    -0.31900
C57         C  0.05246594  0.21515857  0.02543114     0.21600
C58         C  0.00656415  0.24856339  0.03341380     0.03700
C59         C  0.95832476  0.26630641  0.00465536    -0.21600
C60         C  0.95927605  0.24917327  0.96785850     0.12900
S61         S  0.99747023  0.19871969  0.91428061    -0.05300
C62         C  0.92755936  0.23550888  0.90571537    -0.08700
C63         C  0.91381813  0.26051414  0.93664129    -0.25300
S64         S  0.01720066  0.26534931  0.07956991    -0.02500
C65         C  0.08317745  0.22647766  0.08796945    -0.16000
C66         C  0.09545040  0.20210098  0.05665382    -0.14000
H67         H  0.09071352  0.17251687  0.98269840     0.21400
H68         H  0.92153350  0.29211931  0.01070267     0.17400
H69         H  0.86989581  0.28428504  0.93698164     0.19900
H70         H  0.13699849  0.17724579  0.05608952     0.13300
C71         C  0.49635255  0.24341238  0.95356707     0.17200
C72         C  0.44260537  0.25857153  0.98034010    -0.31900
C73         C  0.44479425  0.24199906  0.01795215     0.21600
C74         C  0.49809932  0.21186102  0.02840598     0.03700
C75         C  0.55117777  0.19663517  0.00169736    -0.21600
C76         C  0.54870599  0.21296423  0.96424823     0.12900
S77         S  0.50665687  0.26031002  0.90690674    -0.05300
C78         C  0.58191005  0.22573324  0.90214428    -0.08700
C79         C  0.59705412  0.20249178  0.93488821    -0.25300
S80         S  0.49083995  0.19497714  0.07492175    -0.02500
C81         C  0.41448360  0.22853685  0.08052358    -0.16000
C82         C  0.39651884  0.25178138  0.04791537    -0.14000
H83         H  0.40122732  0.28225072  0.97230103     0.21400
H84         H  0.59270034  0.17301369  0.00975607     0.17400
H85         H  0.64361295  0.18015623  0.93768999     0.19900
H86         H  0.34901612  0.27363427  0.04584692     0.13300
C87         C  0.31046534  0.02950589  0.22301906     0.17200
C88         C  0.34243406  0.99112386  0.21838551    -0.31900
C89         C  0.29166136  0.95990972  0.21814479     0.21600
C90         C  0.21281616  0.96646314  0.22346819     0.03700
C91         C  0.18096240  0.00480337  0.22869433    -0.21600
C92         C  0.23148175  0.03616518  0.22777269     0.12900
S93         S  0.36105320  0.07152668  0.21887739    -0.05300
C94         C  0.27466457  0.09847525  0.22214161    -0.08700
C95         C  0.21062640  0.07576690  0.22770901    -0.25100
S96         S  0.16048450  0.92499906  0.22002079    -0.02500
C97         C  0.24552227  0.89862913  0.21067399    -0.16000
C98         C  0.31083101  0.92100776  0.21077726    -0.14000
H99         H  0.40370776  0.98602615  0.21338076     0.21400
H100        H  0.11915465  0.01011910  0.23157191     0.17400
H101        H  0.15144421  0.08745596  0.22860870     0.19900
H102        H  0.36878910  0.90969633  0.20450197     0.13300
C103        C  0.79884007  0.03611502  0.76391850     0.17200
C104        C  0.83026466  0.99727452  0.76348003    -0.31900
C105        C  0.77867310  0.96644644  0.76291846     0.21600
C106        C  0.69925763  0.97392227  0.76151677     0.03700
C107        C  0.66779864  0.01284028  0.76096638    -0.21600
C108        C  0.71943575  0.04366764  0.76285925     0.12900
S109        S  0.85158213  0.07709380  0.76989439    -0.05300
C110        C  0.76584332  0.10472391  0.77188843    -0.08700
C111        C  0.70011669  0.08311212  0.76710236    -0.25300
S112        S  0.64649763  0.93249203  0.76487437    -0.02500
C113        C  0.73233480  0.90493711  0.76924525    -0.16000
C114        C  0.79802130  0.92687774  0.76699054    -0.14000
H115        H  0.89211183  0.99129436  0.76563725     0.21400
H116        H  0.60582716  0.01874989  0.76119756     0.17400
H117        H  0.64134778  0.09523225  0.76892087     0.19900
H118        H  0.85663631  0.91479471  0.77057083     0.13300
C119        C  0.47725781  0.74220807  0.02015113     0.17200
C120        C  0.53117567  0.72684827  0.99351181    -0.31900
C121        C  0.52663394  0.74170935  0.95525261     0.21600
C122        C  0.47042624  0.77012514  0.94400727     0.03700
C123        C  0.41630574  0.78503548  0.97039948    -0.21600
C124        C  0.42161926  0.77073305  0.00858002     0.12900
S125        S  0.47297282  0.72911857  0.06823978    -0.05300
C126        C  0.39581831  0.76272078  0.07244289    -0.08700
C127        C  0.37528151  0.78266199  0.03832898    -0.25300
S128        S  0.47848555  0.78732826  0.89767071    -0.02500
C129        C  0.55950769  0.75656810  0.89330895    -0.16000
C130        C  0.57751060  0.73333348  0.92592583    -0.14000
H131        H  0.57573300  0.70507752  0.00239272     0.21400
H132        H  0.37326189  0.80772198  0.96181181     0.17400
H133        H  0.32777324  0.80441545  0.03525814     0.19900
H134        H  0.62859781  0.71388691  0.92907216     0.13300
C135        C  0.96003768  0.75252516  0.96622666     0.17200
C136        C  0.00531328  0.73401797  0.99557382    -0.31900
C137        C  0.01076924  0.75350421  0.03090422     0.21600
C138        C  0.97235664  0.78964455  0.03700211     0.03700
C139        C  0.92615619  0.80791026  0.00782166    -0.21600
C140        C  0.92141648  0.78860769  0.97231709     0.12900
S141        S  0.94685370  0.73394935  0.92110879    -0.05300
C142        C  0.88840431  0.77517011  0.91034668    -0.08700
C143        C  0.88027448  0.80177699  0.94031410    -0.25300
S144        S  0.99218654  0.81007012  0.08064326    -0.02500
C145        C  0.05386651  0.76977044  0.09043670    -0.16000
C146        C  0.05679716  0.74171845  0.06166646    -0.14000
H147        H  0.03624738  0.70605168  0.99081305     0.21400
H148        H  0.89673687  0.83634043  0.01225970     0.17400
H149        H  0.84459919  0.82886125  0.93906001     0.19900
H150        H  0.09498030  0.71550382  0.06199448     0.13300
C151        C  0.75877692  0.35443628  0.66451052     0.17200
C152        C  0.75326728  0.37220480  0.62751452    -0.31900
C153        C  0.76189807  0.41323398  0.62464184     0.21600
C154        C  0.77477740  0.43542456  0.65717563     0.03700
C155        C  0.78112542  0.41771459  0.69401155    -0.21600
C156        C  0.77299938  0.37679624  0.69686421     0.12900
S157        S  0.74830400  0.30530454  0.67448958    -0.05300
C158        C  0.76382699  0.31511213  0.72264839    -0.08700
C159        C  0.77644746  0.35439176  0.73023342    -0.25300
S160        S  0.78042502  0.48468259  0.64812178    -0.02500
C161        C  0.76762246  0.47594573  0.59922538    -0.16000
C162        C  0.75795120  0.43614260  0.59141417    -0.14000
H163        H  0.74226910  0.35486878  0.60215042     0.21400
H164        H  0.79134928  0.43515115  0.71941121     0.17400
H165        H  0.78662348  0.36604174  0.75874781     0.19900
H166        H  0.74771591  0.42475904  0.56281006     0.13300
C167        C  0.71288803  0.66155983  0.65932401     0.17200
C168        C  0.68157827  0.63670888  0.63177418    -0.31900
C169        C  0.73067523  0.60705981  0.61624662     0.21600
C170        C  0.80796177  0.60315596  0.62677292     0.03700
C171        C  0.84010651  0.62898642  0.65318788    -0.21600
C172        C  0.79048226  0.65781804  0.66968663     0.12900
S173        S  0.66053598  0.69565896  0.68523690    -0.05300
C174        C  0.74376709  0.70472284  0.71067515    -0.08700
C175        C  0.80879568  0.68288520  0.69889277    -0.25300
S176        S  0.85544569  0.56277510  0.60811829    -0.02500
C177        C  0.76905796  0.54932970  0.58712827    -0.16000
C178        C  0.70873311  0.57734073  0.59255988    -0.14000
H179        H  0.62055287  0.63893632  0.62441828     0.21400
H180        H  0.90015993  0.62533235  0.66212991     0.17400
H181        H  0.86554853  0.68396506  0.71217180     0.19900
H182        H  0.65041476  0.57566738  0.58165008     0.13300
C183        C  0.22666569  0.40019842  0.36193111     0.17200
C184        C  0.19878792  0.36610108  0.34506307    -0.31900
C185        C  0.23919608  0.35055196  0.31326080     0.21600
C186        C  0.30454420  0.36806957  0.29910627     0.03700
C187        C  0.33136226  0.40246905  0.31557922    -0.21600
C188        C  0.29077802  0.41801496  0.34721628     0.12900
S189        S  0.18609324  0.42413187  0.40027885    -0.05300
C190        C  0.25715995  0.45883527  0.39734664    -0.08700
C191        C  0.30721032  0.45164850  0.36645258    -0.25300
S192        S  0.34623849  0.34460270  0.26075233    -0.02500
C193        C  0.27409873  0.31115620  0.26322676    -0.16000
C194        C  0.22105766  0.31791998  0.29255271    -0.14000
H195        H  0.14781910  0.35239208  0.35614043     0.21400
H196        H  0.38174576  0.41652000  0.30423354     0.17400
H197        H  0.35130226  0.47107716  0.35676528     0.19900
H198        H  0.17184239  0.30003227  0.29829653     0.13300
C199        C  0.27531721  0.64941687  0.32306090     0.17200
C200        C  0.30250784  0.62842851  0.35619327    -0.31900
C201        C  0.26982745  0.59204186  0.36484348     0.21600
C202        C  0.21188137  0.57763028  0.34185853     0.03700
C203        C  0.18324793  0.59904490  0.30937701    -0.21600
C204        C  0.21669987  0.63505169  0.30038667     0.12900
S205        S  0.31183585  0.69235487  0.30567140    -0.05300
C206        C  0.24760786  0.69083984  0.26740878    -0.08700
C207        C  0.19992987  0.65891092  0.26867891    -0.25300
S208        S  0.18245477  0.53225857  0.35587289    -0.02500
C209        C  0.24977694  0.53185629  0.39340637    -0.16000
C210        C  0.29100519  0.56636924  0.39469405    -0.14000
H211        H  0.34872453  0.63939341  0.37377784     0.21400
H212        H  0.13837680  0.58757135  0.29125161     0.17400
H213        H  0.15702221  0.65277144  0.24686649     0.19900
H214        H  0.33454196  0.57248708  0.41615277     0.13300
C215        C  0.08342505  0.48192054  0.49330164     0.17200
C216        C  0.02776691  0.46672662  0.51843623    -0.31900
C217        C  0.95474610  0.48681786  0.52006338     0.21600
C218        C  0.93802461  0.52039020  0.49769089     0.03700
C219        C  0.99375896  0.53568234  0.47287849    -0.21600
C220        C  0.06660318  0.51569820  0.47132559     0.12900
S221        S  0.17424965  0.46138005  0.48553676    -0.05300
C222        C  0.18951533  0.49786332  0.45060831    -0.08700
C223        C  0.12699910  0.52556394  0.44802729    -0.25300
S224        S  0.84771163  0.54138180  0.50496067    -0.02500
C225        C  0.83121277  0.50501967  0.53956717    -0.16000
C226        C  0.89420925  0.47775188  0.54384247    -0.14000
H227        H  0.04074047  0.44039974  0.53592492     0.21400
H228        H  0.98091476  0.56210633  0.45550312     0.17400
H229        H  0.12336514  0.55114023  0.42885187     0.19900
H230        H  0.89834358  0.45375114  0.56489361     0.13300
C231        C  0.47634883  0.49787257  0.45978204     0.17200
C232        C  0.55743994  0.49857233  0.46252102    -0.31900
C233        C  0.59099184  0.50022568  0.49955173     0.21600
C234        C  0.54553203  0.50052928  0.53233029     0.03700
C235        C  0.46419375  0.49965096  0.52954646    -0.21600
C236        C  0.43048861  0.49857287  0.49235494     0.12900
S237        S  0.42550800  0.49695159  0.41760698    -0.05300
C238        C  0.33925529  0.49702051  0.44320884    -0.08700
C239        C  0.35229132  0.49852121  0.48323620    -0.25300
S240        S  0.59734879  0.50281711  0.57441752    -0.02500
C241        C  0.68214873  0.50539849  0.54778025    -0.16000
C242        C  0.66881462  0.50239927  0.50805532    -0.14000
H243        H  0.59280606  0.49838698  0.43678662     0.21400
H244        H  0.42875028  0.50021650  0.55524403     0.17400
H245        H  0.30756245  0.50002240  0.50487118     0.19900
H246        H  0.71309267  0.50211814  0.48615893     0.13300
loop_ 
_geom_bond_atom_site_label_1 
_geom_bond_atom_site_label_2 
_geom_bond_distance 
_geom_bond_site_symmetry_2 
_ccdc_geom_bond_type 
C1          C190   1.550       .  S
C1          C209   1.543       .  S
C1          C222   1.561       .  S
C1          C238   1.562       .  S
C2          C161   1.541       .  S
C2          C177   1.544       .  S
C2          C225   1.550       .  S
C2          C241   1.552       .  S
O3            C6   1.264       .  A
O3           Cd8   2.440       .  S
C4           O13   1.264       .  A
C4            O9   1.265       .  A
C4          C129   1.467       .  S
O5           C11   1.267       .  A
O5           Cd8   2.476       .  S
C6           O14   1.268       .  A
C6          C142   1.470       .  S
C7           O12   1.263       .  A
C7           O10   1.267       .  A
C7          C174   1.473       .  S
Cd8          O15   2.458       .  S
Cd8          O14   2.482       .  S
Cd8          O13   2.468       .  S
Cd8           O9   2.447       .  S
Cd8          O12   2.455       .  S
Cd8          O10   2.494       .  S
C11          O15   1.264       .  A
C11         C113   1.472       .  S
O16          C19   1.266       .  A
O16         Cd21   2.439       .  S
C17          O26   1.260       .  A
C17          O22   1.268       .  A
C17         C126   1.473       .  S
O18          C24   1.265       .  A
O18         Cd21   2.460       .  S
C19          O27   1.267       .  A
C19         C145   1.468       .  S
C20          O25   1.265       .  A
C20          O23   1.264       .  A
C20         C206   1.476       .  S
Cd21         O28   2.478       .  S
Cd21         O27   2.462       .  S
Cd21         O26   2.419       .  S
Cd21         O22   2.525       .  S
Cd21         O25   2.491       .  S
Cd21         O23   2.479       .  S
C24          O28   1.266       .  A
C24          C97   1.473       .  S
O29          C32   1.268       .  A
O29         Cd34   2.511       .  S
C30          O39   1.268       .  A
C30          O35   1.262       .  A
C30          C62   1.469       .  S
O31          C37   1.269       .  A
O31         Cd34   2.460       .  S
C32          O40   1.260       .  A
C32          C78   1.468       .  S
C33          O38   1.263       .  A
C33          O36   1.262       .  A
C33         C158   1.471       .  S
Cd34         O41   2.461       .  S
Cd34         O40   2.394       .  S
Cd34         O39   2.473       .  S
Cd34         O35   2.444       .  S
Cd34         O38   2.488       .  S
Cd34         O36   2.469       .  S
C37          O41   1.268       .  A
C37         C110   1.473       .  S
O42          C45   1.267       .  A
O42         Cd47   2.465       .  S
C43          O52   1.263       .  A
C43          O48   1.267       .  A
C43          C65   1.467       .  S
O44          C50   1.267       .  A
O44         Cd47   2.482       .  S
C45          O53   1.263       .  A
C45          C81   1.469       .  S
C46          O51   1.265       .  A
C46          O49   1.264       .  A
C46         C193   1.470       .  S
Cd47         O54   2.455       .  S
Cd47         O53   2.457       .  S
Cd47         O52   2.415       .  S
Cd47         O48   2.489       .  S
Cd47         O51   2.480       .  S
Cd47         O49   2.458       .  S
C50          O54   1.265       .  A
C50          C94   1.472       .  S
C55          S61   1.705   1_455  A
C55          C60   1.387   1_455  A
C55          C56   1.396       .  A
C56          C57   1.399   1_556  A
C56          H67   1.083       .  S
C57          C66   1.363       .  A
C57          C58   1.386       .  A
C58          S64   1.713       .  A
C58          C59   1.404   1_455  A
C59          C60   1.406   1_554  A
C59          H68   1.083       .  S
C60          C63   1.370       .  A
S61          C62   1.719       .  A
C62          C63   1.390       .  A
C63          H69   1.083       .  S
S64          C65   1.724       .  A
C65          C66   1.384       .  A
C66          H70   1.083       .  S
C71          S77   1.715       .  A
C71          C76   1.386       .  A
C71          C72   1.404       .  A
C72          C73   1.406   1_556  A
C72          H83   1.083       .  S
C73          C82   1.371       .  A
C73          C74   1.387       .  A
C74          S80   1.704       .  A
C74          C75   1.396       .  A
C75          C76   1.398   1_554  A
C75          H84   1.083       .  S
C76          C79   1.361       .  A
S77          C78   1.724       .  A
C78          C79   1.384       .  A
C79          H85   1.084       .  S
S80          C81   1.719       .  A
C81          C82   1.389       .  A
C82          H86   1.083       .  S
C87          S93   1.706       .  A
C87          C92   1.387       .  A
C87          C88   1.402   1_545  A
C88          C89   1.402       .  A
C88          H99   1.082       .  S
C89          C98   1.372       .  A
C89          C90   1.387       .  A
C90          S96   1.707       .  A
C90          C91   1.403   1_565  A
C91          C92   1.403       .  A
C91         H100   1.082       .  S
C92          C95   1.373       .  A
S93          C94   1.723       .  A
C94          C95   1.388       .  A
C95         H101   1.083       .  S
S96          C97   1.723       .  A
C97          C98   1.387       .  A
C98         H102   1.083       .  S
C103        S109   1.707       .  A
C103        C108   1.387       .  A
C103        C104   1.401   1_545  A
C104        C105   1.402       .  A
C104        H115   1.082       .  S
C105        C114   1.371       .  A
C105        C106   1.387       .  A
C106        S112   1.708       .  A
C106        C107   1.403   1_565  A
C107        C108   1.404       .  A
C107        H116   1.082       .  S
C108        C111   1.373       .  A
S109        C110   1.722       .  A
C110        C111   1.388       .  A
C111        H117   1.083       .  S
S112        C113   1.724       .  A
C113        C114   1.386       .  A
C114        H118   1.083       .  S
C119        S125   1.715       .  A
C119        C124   1.386       .  A
C119        C120   1.405   1_554  A
C120        C121   1.407       .  A
C120        H131   1.083   1_556  S
C121        C130   1.372       .  A
C121        C122   1.387       .  A
C122        S128   1.703       .  A
C122        C123   1.396       .  A
C123        C124   1.399   1_556  A
C123        H132   1.083       .  S
C124        C127   1.364       .  A
S125        C126   1.725       .  A
C126        C127   1.385       .  A
C127        H133   1.083       .  S
S128        C129   1.719       .  A
C129        C130   1.389       .  A
C130        H134   1.083       .  S
C135        S141   1.708       .  A
C135        C140   1.387       .  A
C135        C136   1.400   1_655  A
C136        C137   1.402   1_556  A
C136        H147   1.083       .  S
C137        C146   1.368       .  A
C137        C138   1.387   1_455  A
C138        S144   1.708       .  A
C138        C139   1.401       .  A
C139        C140   1.403   1_554  A
C139        H148   1.083       .  S
C140        C143   1.369       .  A
S141        C142   1.722       .  A
C142        C143   1.388       .  A
C143        H149   1.083       .  S
S144        C145   1.723   1_655  A
C145        C146   1.386       .  A
C146        H150   1.083       .  S
C151        S157   1.710       .  A
C151        C156   1.387       .  A
C151        C152   1.404       .  A
C152        C153   1.405       .  A
C152        H163   1.083       .  S
C153        C162   1.374       .  A
C153        C154   1.384       .  A
C154        S160   1.698       .  A
C154        C155   1.399       .  A
C155        C156   1.399       .  A
C155        H164   1.083       .  S
C156        C159   1.369       .  A
S157        C158   1.724       .  A
C158        C159   1.385       .  A
C159        H165   1.083       .  S
S160        C161   1.735       .  A
C161        C162   1.395       .  A
C162        H166   1.083       .  S
C167        S173   1.706       .  A
C167        C172   1.387       .  A
C167        C168   1.402       .  A
C168        C169   1.403       .  A
C168        H179   1.084       .  S
C169        C178   1.372       .  A
C169        C170   1.384       .  A
C170        S176   1.703       .  A
C170        C171   1.403       .  A
C171        C172   1.403       .  A
C171        H180   1.083       .  S
C172        C175   1.373       .  A
S173        C174   1.723       .  A
C174        C175   1.387       .  A
C175        H181   1.083       .  S
S176        C177   1.738       .  A
C177        C178   1.396       .  A
C178        H182   1.079       .  S
C183        S189   1.704       .  A
C183        C188   1.381       .  A
C183        C184   1.403       .  A
C184        C185   1.404       .  A
C184        H195   1.083       .  S
C185        C194   1.372       .  A
C185        C186   1.387       .  A
C186        S192   1.705       .  A
C186        C187   1.400       .  A
C187        C188   1.401       .  A
C187        H196   1.083       .  S
C188        C191   1.367       .  A
S189        C190   1.738       .  A
C190        C191   1.397       .  A
C191        H197   1.079       .  S
S192        C193   1.722       .  A
C193        C194   1.387       .  A
C194        H198   1.083       .  S
C199        S205   1.710       .  A
C199        C204   1.387       .  A
C199        C200   1.405       .  A
C200        C201   1.405       .  A
C200        H211   1.083       .  S
C201        C210   1.375       .  A
C201        C202   1.385       .  A
C202        S208   1.702       .  A
C202        C203   1.402       .  A
C203        C204   1.402       .  A
C203        H212   1.083       .  S
C204        C207   1.372       .  A
S205        C206   1.724       .  A
C206        C207   1.387       .  A
C207        H213   1.083       .  S
S208        C209   1.737       .  A
C209        C210   1.395       .  A
C210        H214   1.082       .  S
C215        S221   1.716       .  A
C215        C220   1.381       .  A
C215        C216   1.409       .  A
C216        C217   1.411   1_455  A
C216        H227   1.083       .  S
C217        C226   1.377       .  A
C217        C218   1.382       .  A
C218        S224   1.711       .  A
C218        C219   1.404       .  A
C219        C220   1.407   1_655  A
C219        H228   1.083       .  S
C220        C223   1.372       .  A
S221        C222   1.741       .  A
C222        C223   1.402       .  A
C223        H229   1.080       .  S
S224        C225   1.735       .  A
C225        C226   1.403       .  A
C226        H230   1.081       .  S
C231        S237   1.699       .  A
C231        C236   1.382       .  A
C231        C232   1.407       .  A
C232        C233   1.404       .  A
C232        H243   1.083       .  S
C233        C242   1.381       .  A
C233        C234   1.383       .  A
C234        S240   1.708       .  A
C234        C235   1.412       .  A
C235        C236   1.409       .  A
C235        H244   1.083       .  S
C236        C239   1.387       .  A
S237        C238   1.740       .  A
C238        C239   1.402       .  A
C239        H245   1.080       .  S
S240        C241   1.742       .  A
C241        C242   1.397       .  A
C242        H246   1.080       .  S
