geometry optimzed in LAMMPS
_audit_creation_date              2020-11-30 
_audit_creation_method            'lammps2cif' 
_symmetry_space_group_name_H-M    'P1' 
_symmetry_Int_Tables_number       1 
_symmetry_cell_setting            triclinic 
loop_ 
_symmetry_equiv_pos_as_xyz 
  x,y,z 
_cell_length_a                    27.95446717 
_cell_length_b                    28.011502597952692 
_cell_length_c                    24.924730875541627 
_cell_angle_alpha                 90.0084418349316 
_cell_angle_beta                  90.15357333475798 
_cell_angle_gamma                 120.01613341469697 
loop_ 
_atom_site_label 
_atom_site_type_symbol 
_atom_site_fract_x 
_atom_site_fract_y 
_atom_site_fract_z 
_atom_site_charge 
O1          O  0.75582482  0.38592865  0.81392812    -0.79500
C2          C  0.57936542  0.24107833  0.67718185     0.99900
O3          O  0.61025419  0.22956908  0.70447369    -0.68600
O4          O  0.71600469  0.29352702  0.68588780    -0.72200
Al5        Al  0.67304651  0.27258515  0.74942058     1.49000
C6          C  0.75961242  0.33870715  0.67807334     0.95200
O7          O  0.70687019  0.42244377  0.68666466    -0.78400
O8          O  0.61349230  0.36853755  0.81381639    -0.71900
Al9        Al  0.72742518  0.39995295  0.75028350     1.90100
O10         O  0.61937118  0.38992455  0.70570035    -0.71000
O11         O  0.56502393  0.26223301  0.79369631    -0.70900
O12         O  0.57771079  0.28452148  0.68564610    -0.76500
O13         O  0.63072584  0.24375760  0.81289661    -0.74700
O14         O  0.66676629  0.33311980  0.74988962    -1.10900
O15         O  0.73734263  0.30200678  0.79417887    -0.70100
C16         C  0.76295064  0.34549366  0.82161438     1.00700
C17         C  0.66169460  0.42096764  0.67858480     0.97100
Al18       Al  0.59981681  0.32683315  0.74974249     1.55600
O19         O  0.77090588  0.38078352  0.70565212    -0.74700
C20         C  0.58307183  0.23652115  0.82072181     1.01200
C21         C  0.65391626  0.41608492  0.82200579     0.96100
O22         O  0.69763034  0.43430112  0.79495047    -0.80000
C23         C  0.65553297  0.61308860  0.97362090     0.05500
C24         C  0.60955714  0.60917314  0.00021500    -0.10700
C25         C  0.61369646  0.65529218  0.02666892     0.03000
C26         C  0.66388451  0.70533786  0.02645659    -0.09200
C27         C  0.70987223  0.70936625  0.99987185     0.05500
C28         C  0.70563058  0.66322359  0.97346631    -0.08600
H29         H  0.57078741  0.57042443  0.00038565     0.11100
H30         H  0.66717642  0.74099346  0.04702510     0.08600
H31         H  0.74119286  0.66632289  0.95284201     0.08400
C32         C  0.00006943  0.04902080  0.00036205     0.05500
C33         C  0.94996244  0.99892126  0.00017163    -0.10700
C34         C  0.94993557  0.94886756  0.99999622     0.03000
C35         C  0.00013105  0.94897178  0.99999615    -0.09200
C36         C  0.05029414  0.99901780  0.00018408     0.05500
C37         C  0.05020681  0.04901328  0.00037561    -0.08600
H38         H  0.91114564  0.99888568  0.00016397     0.11100
H39         H  0.00015616  0.91026535  0.99985484     0.08600
H40         H  0.08899979  0.08775816  0.00051870     0.08400
C41         C  0.04213524  0.38462477  0.02712310     0.05500
C42         C  0.04204735  0.33452945  0.02719208    -0.10700
C43         C  0.00003653  0.28846262  0.00057006     0.03000
C44         C  0.95804114  0.29254221  0.97387794    -0.09200
C45         C  0.95798033  0.34256152  0.97380431     0.05500
C46         C  0.00006379  0.38859333  0.00042796    -0.08600
H47         H  0.07452392  0.33139535  0.04793351     0.11100
H48         H  0.92555979  0.25694141  0.95318208     0.08600
H49         H  0.00007538  0.42731287  0.00036945     0.08400
C50         C  0.34497149  0.95773136  0.02648162     0.05500
C51         C  0.29482410  0.95774386  0.02653445    -0.10700
C52         C  0.29051354  0.99955147  0.00002385     0.03000
C53         C  0.33647952  0.04144561  0.97343107    -0.09200
C54         C  0.38672382  0.04162347  0.97332411     0.05500
C55         C  0.39093590  0.99973270  0.99988459    -0.08600
H56         H  0.25927496  0.92533420  0.04716796     0.11100
H57         H  0.33313257  0.07374252  0.95278946     0.08600
H58         H  0.42974921  0.99977950  0.99979804     0.08400
O59         O  0.24439469  0.63036208  0.18647847    -0.79500
C60         C  0.42107962  0.66190919  0.32300329     0.99900
O61         O  0.39020142  0.61955531  0.29570526    -0.68600
O62         O  0.28445852  0.57786163  0.31444585    -0.72200
Al63       Al  0.32733490  0.59981823  0.25085728     1.49000
C64         C  0.24083082  0.57945360  0.32232020     0.95200
O65         O  0.29344041  0.71586134  0.31370679    -0.78400
O66         O  0.38673185  0.75521337  0.18652036    -0.71900
Al67       Al  0.27285399  0.67280208  0.25010193     1.90100
O68         O  0.38092565  0.77072068  0.29463953    -0.71000
O69         O  0.43526444  0.69736147  0.20652354    -0.70900
O70         O  0.42266185  0.70697582  0.31459823    -0.76500
O71         O  0.36957949  0.61327317  0.18731419    -0.74700
O72         O  0.33354976  0.66659625  0.25042750    -1.10900
O73         O  0.26297970  0.56496630  0.20619784    -0.70100
C74         C  0.23729160  0.58281586  0.17880738     1.00700
C75         C  0.33861390  0.75949777  0.32177745     0.97100
Al76       Al  0.40047821  0.72718493  0.25054595     1.55600
O77         O  0.22947264  0.61022801  0.29478241    -0.74700
C78         C  0.41721374  0.65364277  0.17946520     1.01200
C79         C  0.34627841  0.76235190  0.17835107     0.96100
O80         O  0.30256520  0.73687699  0.20540425    -0.80000
C81         C  0.65704767  0.61486829  0.52759230     0.05500
C82         C  0.70704866  0.66504173  0.52783039    -0.10700
C83         C  0.71082173  0.71119144  0.50204163     0.03000
C84         C  0.66452066  0.70721905  0.47604054    -0.09200
C85         C  0.61439488  0.65719000  0.47583342     0.05500
C86         C  0.61062496  0.61091019  0.50158939    -0.08600
H87         H  0.74291725  0.66816456  0.54804768     0.11100
H88         H  0.66749331  0.74296793  0.45598768     0.08600
H89         H  0.57188344  0.57214107  0.50141063     0.08400
C90         C  0.94995296  0.95098755  0.50079534     0.05500
C91         C  0.94992977  0.00099760  0.50065912    -0.10700
C92         C  0.00002238  0.05106784  0.49999213     0.03000
C93         C  0.05015353  0.05109161  0.49945595    -0.09200
C94         C  0.05021699  0.00110533  0.49958738     0.05500
C95         C  0.00010780  0.95107408  0.50025978    -0.08600
H96         H  0.91111466  0.00095087  0.50106592     0.11100
H97         H  0.08893701  0.08983035  0.49894778     0.08600
H98         H  0.00014314  0.91237468  0.50036157     0.08400
C99         C  0.04272369  0.38665539  0.47424077     0.05500
C100        C  0.04256468  0.33655268  0.47412022    -0.10700
C101        C  0.00022760  0.29036946  0.49989760     0.03000
C102        C  0.95792128  0.29424355  0.52578757    -0.09200
C103        C  0.95781697  0.34421092  0.52589920     0.05500
C104        C  0.00028329  0.39051613  0.50012975    -0.08600
H105        H  0.07528831  0.33350545  0.45398466     0.11100
H106        H  0.92517661  0.25847171  0.54583673     0.08600
H107        H  0.00030189  0.42923077  0.50021995     0.08400
C108        C  0.34348652  0.95814338  0.47281722     0.05500
C109        C  0.29343779  0.95829385  0.47268810    -0.10700
C110        C  0.28964257  0.00067563  0.49845952     0.03000
C111        C  0.33596882  0.04303445  0.52433984    -0.09200
C112        C  0.38614626  0.04315529  0.52443990     0.05500
C113        C  0.38993900  0.00063758  0.49869713    -0.08600
H114        H  0.25754757  0.92552708  0.45256254     0.11100
H115        H  0.33297620  0.07581468  0.54437999     0.08600
H116        H  0.42871880  0.00062573  0.49879262     0.08400
C117        C  0.23818285  0.00070886  0.49839070    -0.16200
C118        C  0.19513568  0.00083338  0.49847661     0.07900
C119        C  0.14475844  0.00101659  0.49873788     0.09800
C120        C  0.10170251  0.00112357  0.49907747    -0.17000
C121        C  0.00019380  0.23897181  0.49980393    -0.16200
C122        C  0.00012635  0.19591016  0.49978267     0.07900
C123        C  0.00003941  0.14548967  0.49981329     0.09800
C124        C  0.99999682  0.10243895  0.49987771    -0.17000
C125        C  0.76223240  0.76265943  0.50219321    -0.16200
C126        C  0.80522067  0.80582621  0.50212280     0.07900
C127        C  0.85552116  0.85638957  0.50182686     0.09800
C128        C  0.89851614  0.89954826  0.50142088    -0.17000
C129        C  0.08635238  0.43363016  0.44715251    -0.16200
C130        C  0.12343570  0.47070722  0.42260907     0.07900
C131        C  0.16651058  0.51139905  0.39121743     0.09800
C132        C  0.20186306  0.54379717  0.36156625    -0.17000
C133        C  0.34677980  0.91445125  0.44577648    -0.16200
C134        C  0.34677731  0.87729573  0.42134646     0.07900
C135        C  0.34447777  0.83410379  0.39017738     0.09800
C136        C  0.34166873  0.79862418  0.36075650    -0.17000
C137        C  0.45687772  0.65899409  0.36257067    -0.16200
C138        C  0.48935938  0.65616054  0.39241544     0.07900
C139        C  0.53013578  0.65378367  0.42394276     0.09800
C140        C  0.56729577  0.65376952  0.44858787    -0.17000
C141        C  0.34913697  0.91476536  0.05418386    -0.16200
C142        C  0.35113192  0.87869763  0.07879509     0.07900
C143        C  0.35166353  0.83679745  0.10994907     0.09800
C144        C  0.35035384  0.80191415  0.13929667    -0.17000
C145        C  0.08515427  0.43172763  0.05495855    -0.16200
C146        C  0.12107648  0.47004836  0.07957470     0.07900
C147        C  0.16276935  0.51294970  0.11064233     0.09800
C148        C  0.19759658  0.54694169  0.13988839    -0.17000
C149        C  0.23889008  0.99941625  0.00005013    -0.16200
C150        C  0.19567069  0.99928970  0.00007826     0.07900
C151        C  0.14506411  0.99915905  0.00012320     0.09800
C152        C  0.10186918  0.99907587  0.00015976    -0.17000
C153        C  0.00004043  0.10044671  0.00050943    -0.17000
C154        C  0.00002755  0.14350528  0.00058708     0.07900
C155        C  0.00002426  0.19394097  0.00062566     0.09800
C156        C  0.00002970  0.23701097  0.00061986    -0.17000
C157        C  0.45289278  0.64956508  0.14064097    -0.16200
C158        C  0.48650406  0.64840797  0.11121919     0.07900
C159        C  0.52886371  0.64917416  0.07972524     0.09800
C160        C  0.56679102  0.65127057  0.05474434    -0.17000
C161        C  0.76145628  0.76082193  0.99978777    -0.16200
C162        C  0.80464561  0.80388288  0.99976574     0.07900
C163        C  0.85522189  0.85431852  0.99978732     0.09800
C164        C  0.89839069  0.89739403  0.99985316    -0.17000
C165        C  0.54737687  0.19674667  0.85948011    -0.16200
C166        C  0.51379677  0.16195183  0.88885790     0.07900
C167        C  0.47149608  0.12032328  0.92031466     0.09800
C168        C  0.43361257  0.08447770  0.94527233    -0.17000
C169        C  0.43326764  0.08685884  0.55157827    -0.16200
C170        C  0.47042706  0.12403982  0.57617094     0.07900
C171        C  0.51118321  0.16717379  0.60768511     0.09800
C172        C  0.54362980  0.20244482  0.63755531    -0.17000
C173        C  0.80258315  0.34927763  0.86061476    -0.16200
C174        C  0.83738335  0.35015254  0.88996039     0.07900
C175        C  0.87906714  0.34901851  0.92115728     0.09800
C176        C  0.91498371  0.34665977  0.94587474    -0.17000
C177        C  0.79862176  0.34204745  0.63883299    -0.16200
C178        C  0.83400582  0.34505592  0.60915929     0.07900
C179        C  0.87711013  0.34751235  0.57771188     0.09800
C180        C  0.91420571  0.34756193  0.55309566    -0.17000
C181        C  0.65866011  0.45706433  0.63962797    -0.16200
C182        C  0.65591266  0.48977580  0.61022075     0.07900
C183        C  0.65370457  0.53072041  0.57906327     0.09800
C184        C  0.65375837  0.56789877  0.55463937    -0.17000
C185        C  0.64982798  0.45156057  0.86108268    -0.16200
C186        C  0.64862087  0.48520960  0.89041244     0.07900
C187        C  0.64931583  0.52776796  0.92149808     0.09800
C188        C  0.65140080  0.56591968  0.94602429    -0.17000
loop_ 
_geom_bond_atom_site_label_1 
_geom_bond_atom_site_label_2 
_geom_bond_distance 
_geom_bond_site_symmetry_2 
_ccdc_geom_bond_type 
O1           C16   1.259       .  A
O1           Al9   1.899       .  S
C2           O12   1.258       .  A
C2            O3   1.260       .  A
C2          C172   1.434       .  S
O3           Al5   1.913       .  S
O4            C6   1.258       .  A
O4           Al5   1.897       .  S
Al5          O13   1.900       .  S
Al5          O15   1.913       .  S
Al5          O14   1.790       .  S
C6           O19   1.260       .  A
C6          C177   1.435       .  S
O7           C17   1.258       .  A
O7           Al9   1.897       .  S
O8           C21   1.259       .  A
O8          Al18   1.900       .  S
Al9          O22   1.915       .  S
Al9          O19   1.914       .  S
Al9          O14   1.790       .  S
O10          C17   1.260       .  A
O10         Al18   1.914       .  S
O11          C20   1.261       .  A
O11         Al18   1.915       .  S
O12         Al18   1.897       .  S
O13          C20   1.259       .  A
O14         Al18   1.790       .  S
O15          C16   1.260       .  A
C16         C173   1.435       .  S
C17         C181   1.435       .  S
C20         C165   1.436       .  S
C21          O22   1.261       .  A
C21         C185   1.436       .  S
C23         C188   1.442       .  S
C23          C24   1.402   1_556  A
C23          C28   1.402       .  A
C24          C25   1.402       .  A
C24          H29   1.084       .  S
C25         C160   1.442       .  S
C25          C26   1.402       .  A
C26          C27   1.401   1_554  A
C26          H30   1.085       .  S
C27         C161   1.441       .  S
C27          C28   1.401       .  A
C28          H31   1.085       .  S
C32         C153   1.441       .  S
C32          C33   1.402   1_445  A
C32          C37   1.402       .  A
C33          C34   1.402   1_554  A
C33          H38   1.085       .  S
C34         C164   1.441       .  S
C34          C35   1.402   1_655  A
C35          C36   1.402   1_556  A
C35          H39   1.085       .  S
C36         C152   1.441       .  S
C36          C37   1.402   1_565  A
C37          H40   1.085       .  S
C41         C145   1.441       .  S
C41          C42   1.402       .  A
C41          C46   1.402       .  A
C42          C43   1.401       .  A
C42          H47   1.085       .  S
C43         C156   1.441       .  S
C43          C44   1.401   1_454  A
C44          C45   1.402       .  A
C44          H48   1.085       .  S
C45         C176   1.441       .  S
C45          C46   1.402   1_656  A
C46          H49   1.084       .  S
C50         C141   1.442       .  S
C50          C51   1.402       .  A
C50          C55   1.402   1_554  A
C51          C52   1.401       .  A
C51          H56   1.085       .  S
C52         C149   1.441       .  S
C52          C53   1.401   1_564  A
C53          C54   1.402       .  A
C53          H57   1.085       .  S
C54         C168   1.442       .  S
C54          C55   1.403   1_545  A
C55          H58   1.084       .  S
O59          C74   1.259       .  A
O59         Al67   1.899       .  S
C60          O70   1.258       .  A
C60          O61   1.260       .  A
C60         C137   1.434       .  S
O61         Al63   1.913       .  S
O62          C64   1.258       .  A
O62         Al63   1.897       .  S
Al63         O71   1.900       .  S
Al63         O73   1.913       .  S
Al63         O72   1.790       .  S
C64          O77   1.260       .  A
C64         C132   1.435       .  S
O65          C75   1.258       .  A
O65         Al67   1.897       .  S
O66          C79   1.259       .  A
O66         Al76   1.900       .  S
Al67         O80   1.915       .  S
Al67         O77   1.914       .  S
Al67         O72   1.790       .  S
O68          C75   1.260       .  A
O68         Al76   1.914       .  S
O69          C78   1.261       .  A
O69         Al76   1.915       .  S
O70         Al76   1.897       .  S
O71          C78   1.259       .  A
O72         Al76   1.790       .  S
O73          C74   1.260       .  A
C74         C148   1.435       .  S
C75         C136   1.435       .  S
C78         C157   1.436       .  S
C79          O80   1.261       .  A
C79         C144   1.436       .  S
C81         C184   1.440       .  S
C81          C82   1.401       .  A
C81          C86   1.403       .  A
C82          C83   1.400       .  A
C82          H87   1.085       .  S
C83         C125   1.439       .  S
C83          C84   1.400       .  A
C84          C85   1.401       .  A
C84          H88   1.085       .  S
C85         C140   1.440       .  S
C85          C86   1.403       .  A
C86          H89   1.084       .  S
C90         C128   1.439       .  S
C90          C91   1.401   1_565  A
C90          C95   1.401   1_655  A
C91          C92   1.401   1_655  A
C91          H96   1.084       .  S
C92         C124   1.439   1_455  S
C92          C93   1.401       .  A
C93          C94   1.401       .  A
C93          H97   1.084       .  S
C94         C120   1.439       .  S
C94          C95   1.401   1_545  A
C95          H98   1.085       .  S
C99         C129   1.440       .  S
C99         C100   1.401       .  A
C99         C104   1.403       .  A
C100        C101   1.400       .  A
C100        H105   1.085       .  S
C101        C121   1.439       .  S
C101        C102   1.400   1_455  A
C102        C103   1.401       .  A
C102        H106   1.085       .  S
C103        C180   1.440       .  S
C103        C104   1.403   1_655  A
C104        H107   1.084       .  S
C108        C133   1.440       .  S
C108        C109   1.401       .  A
C108        C113   1.403   1_565  A
C109        C110   1.400   1_565  A
C109        H114   1.085       .  S
C110        C117   1.439       .  S
C110        C111   1.400       .  A
C111        C112   1.401       .  A
C111        H115   1.085       .  S
C112        C169   1.440       .  S
C112        C113   1.403       .  A
C113        H116   1.084       .  S
C117        C118   1.205       .  T
C118        C119   1.411       .  S
C119        C120   1.205       .  T
C121        C122   1.205       .  T
C122        C123   1.411       .  S
C123        C124   1.205   1_455  T
C125        C126   1.205       .  T
C126        C127   1.411       .  S
C127        C128   1.205       .  T
C129        C130   1.206       .  T
C130        C131   1.412       .  S
C131        C132   1.206       .  T
C133        C134   1.206       .  T
C134        C135   1.412       .  S
C135        C136   1.205       .  T
C137        C138   1.205       .  T
C138        C139   1.412       .  S
C139        C140   1.206       .  T
C141        C142   1.207       .  T
C142        C143   1.414       .  S
C143        C144   1.207       .  T
C145        C146   1.206       .  T
C146        C147   1.413       .  S
C147        C148   1.206       .  T
C149        C150   1.206       .  T
C150        C151   1.413       .  S
C151        C152   1.206       .  T
C153        C154   1.206       .  T
C154        C155   1.413       .  S
C155        C156   1.206       .  T
C157        C158   1.207       .  T
C158        C159   1.414       .  S
C159        C160   1.207       .  T
C161        C162   1.206       .  T
C162        C163   1.413       .  S
C163        C164   1.206       .  T
C165        C166   1.207       .  T
C166        C167   1.414       .  S
C167        C168   1.207       .  T
C169        C170   1.206       .  T
C170        C171   1.412       .  S
C171        C172   1.205       .  T
C173        C174   1.206       .  T
C174        C175   1.413       .  S
C175        C176   1.206       .  T
C177        C178   1.205       .  T
C178        C179   1.412       .  S
C179        C180   1.206       .  T
C181        C182   1.205       .  T
C182        C183   1.412       .  S
C183        C184   1.206       .  T
C185        C186   1.207       .  T
C186        C187   1.414       .  S
C187        C188   1.207       .  T
