geometry optimzed in LAMMPS
_audit_creation_date              2020-11-30 
_audit_creation_method            'lammps2cif' 
_symmetry_space_group_name_H-M    'P1' 
_symmetry_Int_Tables_number       1 
_symmetry_cell_setting            triclinic 
loop_ 
_symmetry_equiv_pos_as_xyz 
  x,y,z 
_cell_length_a                    20.66606446 
_cell_length_b                    20.6661650100088 
_cell_length_c                    26.094366209057707 
_cell_angle_alpha                 90.00090812446724 
_cell_angle_beta                  90.00120595230143 
_cell_angle_gamma                 90.00005287050185 
loop_ 
_atom_site_label 
_atom_site_type_symbol 
_atom_site_fract_x 
_atom_site_fract_y 
_atom_site_fract_z 
_atom_site_charge 
O1          O  0.96355759  0.88326123  0.05210747    -0.68500
O2          O  0.96525859  0.07556340  0.03188569    -0.69500
O3          O  0.86868434  0.97766547  0.03189371    -0.58100
O4          O  0.06148431  0.97959828  0.05211343    -0.66500
O5          O  0.07555049  0.96527578  0.46842075    -0.66100
O6          O  0.88324619  0.96356317  0.44819881    -0.57300
O7          O  0.97957794  0.06149591  0.44819299    -0.69800
O8          O  0.97765690  0.86869512  0.46841262    -0.68600
Cu9        Cu  0.96450041  0.97977046  0.04495455     1.04600
Cu10       Cu  0.97975622  0.96451150  0.45535158     1.04300
C11         C  0.96878273  0.84598101  0.01335949     0.97700
C12         C  0.97144056  0.09862148  0.48677967     0.96800
C13         C  0.84596787  0.96878888  0.48694720     0.89000
C14         C  0.09860929  0.97146160  0.01352732     0.95200
O15         O  0.49771719  0.38323978  0.32327705    -0.68500
O16         O  0.49601643  0.57554260  0.34349657    -0.69500
O17         O  0.59258915  0.47764541  0.34349038    -0.58100
O18         O  0.39979110  0.47957673  0.32326885    -0.66500
O19         O  0.38572262  0.46525865  0.40696138    -0.66100
O20         O  0.57802723  0.46354730  0.42718542    -0.57300
O21         O  0.48169599  0.56148067  0.42718947    -0.69800
O22         O  0.48361682  0.36867729  0.40697164    -0.68600
Cu23       Cu  0.49677414  0.47974917  0.33042890     1.04600
Cu24       Cu  0.48151708  0.46449504  0.42003183     1.04300
C25         C  0.49249187  0.34596108  0.36202509     0.97700
C26         C  0.48983496  0.59860370  0.38860250     0.96800
C27         C  0.61530543  0.46877183  0.38843687     0.89000
C28         C  0.36266510  0.47144247  0.36185434     0.95200
C29         C  0.41600637  0.92761171  0.05759536     0.01900
C30         C  0.42758547  0.04532694  0.18260075     0.01900
C31         C  0.53372407  0.91601300  0.43259922     0.01900
C32         C  0.54530224  0.03374434  0.30760819     0.01900
O33         O  0.88576308  0.99607699  0.21845811    -0.68500
O34         O  0.07806613  0.99778618  0.19823000    -0.69500
O35         O  0.98173365  0.89985515  0.19822704    -0.58100
O36         O  0.98365683  0.09265451  0.21844620    -0.66500
O37         O  0.99776490  0.07809337  0.30214071    -0.66100
O38         O  0.99606125  0.88578960  0.28191929    -0.57300
O39         O  0.09263704  0.98368709  0.28192432    -0.69800
O40         O  0.89983668  0.98175834  0.30215043    -0.68600
Cu41       Cu  0.98155638  0.99683891  0.20538577     1.04600
Cu42       Cu  0.99682122  0.98158370  0.29498830     1.04300
C43         C  0.86270810  0.98989544  0.26356539     0.97700
C44         C  0.11534878  0.99256136  0.23697682     0.96800
C45         C  0.98987506  0.86273047  0.23681289     0.89000
C46         C  0.99253370  0.11537114  0.26339259     0.95200
O47         O  0.57551609  0.49607570  0.15686649    -0.68500
O48         O  0.38321387  0.49777404  0.17709291    -0.69500
O49         O  0.47955240  0.39984943  0.17709785    -0.58100
O50         O  0.47761722  0.59264683  0.15687631    -0.66500
O51         O  0.46351059  0.57808051  0.07318185    -0.66100
O52         O  0.46522600  0.38577702  0.09340584    -0.57300
O53         O  0.36864358  0.48366918  0.09339879    -0.69800
O54         O  0.56144527  0.48175114  0.07317417    -0.68600
Cu55       Cu  0.47972323  0.49683237  0.16993775     1.04600
Cu56       Cu  0.46446013  0.48157087  0.08033538     1.04300
C57         C  0.59857246  0.48989263  0.11175967     0.97700
C58         C  0.34593129  0.49254484  0.13834611     0.96800
C59         C  0.47141371  0.36272155  0.13851275     0.89000
C60         C  0.46873947  0.61536062  0.11192990     0.95200
C61         C  0.04527195  0.42761499  0.31775382     0.01900
C62         C  0.92756117  0.41602277  0.44275561     0.01900
C63         C  0.03370555  0.54532897  0.19274857     0.01900
C64         C  0.91598214  0.53375611  0.06774640     0.01900
C65         C  0.95595144  0.52341648  0.11341306    -0.08800
C66         C  0.98993529  0.52726442  0.15092768    -0.10400
C67         C  0.93790812  0.45600058  0.98841628    -0.08800
C68         C  0.93405734  0.48998790  0.02592823    -0.10400
C69         C  0.00528805  0.43795678  0.36341068    -0.08800
C70         C  0.97130925  0.43410191  0.40092635    -0.10400
C71         C  0.02720921  0.47137505  0.27592698    -0.08800
C72         C  0.02336380  0.50535454  0.23841080    -0.10400
C73         C  0.27753645  0.49943028  0.14541321    -0.14100
C74         C  0.22100482  0.50976531  0.15304772     0.10000
C75         C  0.15584585  0.52421808  0.16416919     0.11800
C76         C  0.10058137  0.53565948  0.17580783    -0.14900
C77         C  0.84758124  0.52321352  0.08035965    -0.14100
C78         C  0.79105114  0.51324434  0.08890278     0.10000
C79         C  0.72451141  0.50192043  0.09747649     0.11800
C80         C  0.66724933  0.49436714  0.10414717    -0.14900
C81         C  0.99941585  0.18376648  0.27045577    -0.14100
C82         C  0.00974387  0.24030068  0.27808134     0.10000
C83         C  0.02418537  0.30546561  0.28918952     0.11800
C84         C  0.03561605  0.36073511  0.30081858    -0.14900
C85         C  0.02316855  0.61372721  0.20537263    -0.14100
C86         C  0.01320620  0.67025532  0.21392958     0.10000
C87         C  0.00189128  0.73679261  0.22251973     0.11800
C88         C  0.99434424  0.79405396  0.22919963    -0.14900
C89         C  0.79403125  0.99436670  0.27117978    -0.14100
C90         C  0.73676980  0.00191779  0.27785625     0.10000
C91         C  0.67023130  0.01323867  0.28643928     0.11800
C92         C  0.61370230  0.02320519  0.29498977    -0.14900
C93         C  0.52723129  0.98996987  0.34942272    -0.08800
C94         C  0.52338133  0.95598331  0.38693453    -0.10400
C95         C  0.43813009  0.11372273  0.16997347    -0.14100
C96         C  0.44809380  0.17024885  0.16141068     0.10000
C97         C  0.45940660  0.23678471  0.15281283     0.11800
C98         C  0.46694949  0.29404535  0.14612806    -0.14100
C99         C  0.50533016  0.02341078  0.26194167    -0.08800
C100        C  0.47134927  0.02726184  0.22442559    -0.10400
C101        C  0.36070635  0.03566630  0.19953631    -0.14100
C102        C  0.30543867  0.02423087  0.21116809     0.10000
C103        C  0.24027635  0.00978243  0.22228119     0.11800
C104        C  0.18374363  0.99944889  0.22991052    -0.14900
C105        C  0.48996947  0.93409681  0.47442343    -0.08800
C106        C  0.45598780  0.93795362  0.51193743    -0.10400
C107        C  0.43407752  0.97136631  0.09942443    -0.08800
C108        C  0.43792718  0.00534644  0.13694091    -0.10400
C109        C  0.46185396  0.68375539  0.10486676    -0.14100
C110        C  0.45152568  0.74029011  0.09724573     0.10000
C111        C  0.43708534  0.80545714  0.08614581     0.11800
C112        C  0.42565744  0.86072908  0.07452390    -0.14900
C113        C  0.68370039  0.46188400  0.39549928    -0.14100
C114        C  0.74023542  0.45155132  0.40311793     0.10000
C115        C  0.80540261  0.43710546  0.41421403     0.11800
C116        C  0.86067594  0.42567408  0.42583181    -0.14900
C117        C  0.53563330  0.10061809  0.32455551    -0.14100
C118        C  0.52418685  0.15587993  0.33619899     0.10000
C119        C  0.50972547  0.22103637  0.34732426     0.11800
C120        C  0.49938309  0.27756628  0.35495995    -0.14900
C121        C  0.49430836  0.66728101  0.39621182    -0.14100
C122        C  0.50186274  0.72454400  0.40287839     0.10000
C123        C  0.51319086  0.79108391  0.41144712     0.11800
C124        C  0.52316720  0.84761393  0.41998684    -0.14900
C125        C  0.29398845  0.46697919  0.35423928    -0.14100
C126        C  0.23672758  0.45943760  0.34755327     0.10000
C127        C  0.17019168  0.44812640  0.33895269     0.11800
C128        C  0.11366608  0.43816230  0.33038655    -0.14900
C129        C  0.92565071  0.60063239  0.05080737    -0.14100
C130        C  0.93709521  0.65589683  0.03917207     0.10000
C131        C  0.95155386  0.72105555  0.02805531     0.11800
C132        C  0.96189342  0.77758650  0.02042413    -0.14900
C133        C  0.60060631  0.92567042  0.44952917    -0.14100
C134        C  0.65587617  0.93710769  0.46115468     0.10000
C135        C  0.72103970  0.95156054  0.47225998     0.11800
C136        C  0.77757304  0.96189816  0.47988403    -0.14900
C137        C  0.34761172  0.93816693  0.04496843    -0.14100
C138        C  0.29108500  0.94813667  0.03641040     0.10000
C139        C  0.22454809  0.95945327  0.02781973     0.11800
C140        C  0.16728622  0.96699730  0.02114013    -0.14900
C141        C  0.96697068  0.16729814  0.47916868    -0.14100
C142        C  0.95942046  0.22456034  0.47249699     0.10000
C143        C  0.94809691  0.29109864  0.46391998     0.11800
C144        C  0.93812158  0.34762666  0.45537328    -0.14900
O145        O  0.96355741  0.88326115  0.55210733    -0.68500
O146        O  0.96525845  0.07556330  0.53188579    -0.69500
O147        O  0.86868427  0.97766547  0.53189374    -0.58100
O148        O  0.06148433  0.97959804  0.55211341    -0.66500
O149        O  0.07555035  0.96527566  0.96842074    -0.66100
O150        O  0.88324594  0.96356313  0.94819878    -0.57300
O151        O  0.97957777  0.06149594  0.94819287    -0.69800
O152        O  0.97765661  0.86869519  0.96841269    -0.68600
Cu153      Cu  0.96450038  0.97977034  0.54495450     1.04600
Cu154      Cu  0.97975613  0.96451148  0.95535154     1.04300
C155        C  0.96878279  0.84598107  0.51335934     0.97700
C156        C  0.97144046  0.09862128  0.98677932     0.96800
C157        C  0.84596801  0.96878869  0.98694714     0.89000
C158        C  0.09860920  0.97146152  0.51352722     0.95200
O159        O  0.49771725  0.38323968  0.82327704    -0.68500
O160        O  0.49601660  0.57554263  0.84349649    -0.69500
O161        O  0.59258920  0.47764519  0.84349046    -0.58100
O162        O  0.39979124  0.47957665  0.82326881    -0.66500
O163        O  0.38572241  0.46525852  0.90696131    -0.66100
O164        O  0.57802710  0.46354724  0.92718550    -0.57300
O165        O  0.48169582  0.56148060  0.92718931    -0.69800
O166        O  0.48361666  0.36867723  0.90697163    -0.68600
Cu167      Cu  0.49677424  0.47974906  0.83042890     1.04600
Cu168      Cu  0.48151691  0.46449497  0.92003181     1.04300
C169        C  0.49249179  0.34596099  0.86202492     0.97700
C170        C  0.48983482  0.59860355  0.88860216     0.96800
C171        C  0.61530531  0.46877152  0.88843718     0.89000
C172        C  0.36266509  0.47144233  0.86185428     0.95200
C173        C  0.41600636  0.92761169  0.55759532     0.01900
C174        C  0.42758549  0.04532687  0.68260071     0.01900
C175        C  0.53372403  0.91601309  0.93259921     0.01900
C176        C  0.54530231  0.03374427  0.80760819     0.01900
O177        O  0.88576293  0.99607681  0.71845806    -0.68500
O178        O  0.07806617  0.99778603  0.69823002    -0.69500
O179        O  0.98173342  0.89985504  0.69822707    -0.58100
O180        O  0.98365674  0.09265449  0.71844613    -0.66500
O181        O  0.99776469  0.07809323  0.80214061    -0.66100
O182        O  0.99606116  0.88578940  0.78191931    -0.57300
O183        O  0.09263693  0.98368705  0.78192435    -0.69800
O184        O  0.89983667  0.98175810  0.80215032    -0.68600
Cu185      Cu  0.98155633  0.99683879  0.70538588     1.04600
Cu186      Cu  0.99682117  0.98158351  0.79498826     1.04300
C187        C  0.86270780  0.98989535  0.76356543     0.97700
C188        C  0.11534884  0.99256124  0.73697706     0.96800
C189        C  0.98987499  0.86273041  0.73681292     0.89000
C190        C  0.99253342  0.11537115  0.76339244     0.95200
O191        O  0.57551610  0.49607566  0.65686661    -0.68500
O192        O  0.38321360  0.49777386  0.67709300    -0.69500
O193        O  0.47955215  0.39984944  0.67709790    -0.58100
O194        O  0.47761706  0.59264660  0.65687626    -0.66500
O195        O  0.46351077  0.57808041  0.57318175    -0.66100
O196        O  0.46522624  0.38577711  0.59340584    -0.57300
O197        O  0.36864367  0.48366906  0.59339881    -0.69800
O198        O  0.56144526  0.48175106  0.57317427    -0.68600
Cu199      Cu  0.47972308  0.49683225  0.66993781     1.04600
Cu200      Cu  0.46446023  0.48157081  0.58033536     1.04300
C201        C  0.59857253  0.48989268  0.61175989     0.97700
C202        C  0.34593124  0.49254493  0.63834619     0.96800
C203        C  0.47141387  0.36272166  0.63851281     0.89000
C204        C  0.46873930  0.61536050  0.61192979     0.95200
C205        C  0.04527195  0.42761484  0.81775383     0.01900
C206        C  0.92756105  0.41602288  0.94275557     0.01900
C207        C  0.03370552  0.54532887  0.69274863     0.01900
C208        C  0.91598215  0.53375605  0.56774646     0.01900
C209        C  0.95595136  0.52341652  0.61341304    -0.08800
C210        C  0.98993514  0.52726433  0.65092769    -0.10400
C211        C  0.93790828  0.45600032  0.48841632    -0.08800
C212        C  0.93405744  0.48998784  0.52592817    -0.10400
C213        C  0.00528800  0.43795663  0.86341067    -0.08800
C214        C  0.97130930  0.43410186  0.90092640    -0.10400
C215        C  0.02720940  0.47137495  0.77592711    -0.08800
C216        C  0.02336380  0.50535441  0.73841090    -0.10400
C217        C  0.27753643  0.49943055  0.64541313    -0.14100
C218        C  0.22100484  0.50976537  0.65304765     0.10000
C219        C  0.15584576  0.52421824  0.66416905     0.11800
C220        C  0.10058144  0.53565970  0.67580788    -0.14900
C221        C  0.84758141  0.52321343  0.58035978    -0.14100
C222        C  0.79105107  0.51324415  0.58890272     0.10000
C223        C  0.72451150  0.50192069  0.59747674     0.11800
C224        C  0.66724924  0.49436713  0.60414733    -0.14900
C225        C  0.99941587  0.18376631  0.77045576    -0.14100
C226        C  0.00974373  0.24030067  0.77808126     0.10000
C227        C  0.02418554  0.30546537  0.78918945     0.11800
C228        C  0.03561604  0.36073500  0.80081856    -0.14900
C229        C  0.02316844  0.61372718  0.70537262    -0.14100
C230        C  0.01320611  0.67025521  0.71392960     0.10000
C231        C  0.00189108  0.73679260  0.72251982     0.11800
C232        C  0.99434450  0.79405384  0.72919975    -0.14900
C233        C  0.79403125  0.99436663  0.77117984    -0.14100
C234        C  0.73676941  0.00191766  0.77785622     0.10000
C235        C  0.67023142  0.01323849  0.78643949     0.11800
C236        C  0.61370214  0.02320510  0.79498977    -0.14900
C237        C  0.52723135  0.98996998  0.84942289    -0.08800
C238        C  0.52338100  0.95598345  0.88693466    -0.10400
C239        C  0.43813005  0.11372263  0.66997336    -0.14100
C240        C  0.44809401  0.17024862  0.66141077     0.10000
C241        C  0.45940658  0.23678470  0.65281275     0.11800
C242        C  0.46694954  0.29404520  0.64612802    -0.14100
C243        C  0.50533030  0.02341060  0.76194173    -0.08800
C244        C  0.47134926  0.02726198  0.72442561    -0.10400
C245        C  0.36070634  0.03566639  0.69953637    -0.14100
C246        C  0.30543869  0.02423076  0.71116817     0.10000
C247        C  0.24027633  0.00978245  0.72228110     0.11800
C248        C  0.18374372  0.99944878  0.72991075    -0.14900
C249        C  0.48996922  0.93409697  0.97442327    -0.08800
C250        C  0.45598780  0.93795371  0.01193737    -0.10400
C251        C  0.43407756  0.97136635  0.59942444    -0.08800
C252        C  0.43792729  0.00534646  0.63694081    -0.10400
C253        C  0.46185403  0.68375526  0.60486668    -0.14100
C254        C  0.45152548  0.74029012  0.59724573     0.10000
C255        C  0.43708531  0.80545704  0.58614574     0.11800
C256        C  0.42565750  0.86072922  0.57452399    -0.14900
C257        C  0.68370021  0.46188390  0.89549950    -0.14100
C258        C  0.74023533  0.45155123  0.90311801     0.10000
C259        C  0.80540257  0.43710532  0.91421384     0.11800
C260        C  0.86067590  0.42567408  0.92583165    -0.14900
C261        C  0.53563329  0.10061796  0.82455560    -0.14100
C262        C  0.52418703  0.15587992  0.83619899     0.10000
C263        C  0.50972525  0.22103624  0.84732431     0.11800
C264        C  0.49938296  0.27756625  0.85495987    -0.14900
C265        C  0.49430836  0.66728123  0.89621171    -0.14100
C266        C  0.50186271  0.72454379  0.90287823     0.10000
C267        C  0.51319067  0.79108417  0.91144710     0.11800
C268        C  0.52316735  0.84761377  0.91998695    -0.14900
C269        C  0.29398845  0.46697912  0.85423903    -0.14100
C270        C  0.23672764  0.45943765  0.84755336     0.10000
C271        C  0.17019172  0.44812631  0.83895274     0.11800
C272        C  0.11366621  0.43816238  0.83038638    -0.14900
C273        C  0.92565084  0.60063253  0.55080756    -0.14100
C274        C  0.93709525  0.65589664  0.53917217     0.10000
C275        C  0.95155390  0.72105569  0.52805527     0.11800
C276        C  0.96189357  0.77758625  0.52042406    -0.14900
C277        C  0.60060646  0.92567055  0.94952917    -0.14100
C278        C  0.65587607  0.93710774  0.96115489     0.10000
C279        C  0.72103992  0.95156072  0.97226003     0.11800
C280        C  0.77757286  0.96189813  0.97988424    -0.14900
C281        C  0.34761158  0.93816709  0.54496840    -0.14100
C282        C  0.29108533  0.94813674  0.53641032     0.10000
C283        C  0.22454790  0.95945319  0.52781975     0.11800
C284        C  0.16728652  0.96699751  0.52114029    -0.14900
C285        C  0.96697041  0.16729826  0.97916843    -0.14100
C286        C  0.95942023  0.22456004  0.97249695     0.10000
C287        C  0.94809672  0.29109876  0.96392006     0.11800
C288        C  0.93812153  0.34762648  0.95537327    -0.14900
loop_ 
_geom_bond_atom_site_label_1 
_geom_bond_atom_site_label_2 
_geom_bond_distance 
_geom_bond_site_symmetry_2 
_ccdc_geom_bond_type 
O1           Cu9   2.003       .  S
O1           C11   1.276       .  A
O2           Cu9   2.009   1_545  S
O2          C156   1.276   1_554  A
O3           Cu9   2.010       .  S
O3          C157   1.277   1_554  A
O4           Cu9   2.013   1_455  S
O4           C14   1.277       .  A
O5          Cu10   2.009   1_455  S
O5          C158   1.276       .  A
O6          Cu10   2.003       .  S
O6           C13   1.276       .  A
O7          Cu10   2.013   1_545  S
O7           C12   1.277       .  A
O8          Cu10   2.010       .  S
O8          C155   1.277       .  A
Cu9        Cu154   2.380   1_554  S
Cu10       Cu153   2.380       .  S
C11         O152   1.277   1_554  A
C11         C132   1.433       .  S
C12         O146   1.276       .  A
C12         C141   1.436       .  S
C13         O147   1.277       .  A
C13         C136   1.433       .  S
C14         O149   1.276   1_554  A
C14         C140   1.436       .  S
O15         Cu23   2.003       .  S
O15          C25   1.276       .  A
O16         Cu23   2.009       .  S
O16          C26   1.276       .  A
O17         Cu23   2.010       .  S
O17          C27   1.277       .  A
O18         Cu23   2.013       .  S
O18          C28   1.277       .  A
O19         Cu24   2.009       .  S
O19          C28   1.276       .  A
O20         Cu24   2.003       .  S
O20          C27   1.276       .  A
O21         Cu24   2.013       .  S
O21          C26   1.277       .  A
O22         Cu24   2.010       .  S
O22          C25   1.277       .  A
Cu23        Cu24   2.380       .  S
C25         C120   1.433       .  S
C26         C121   1.436       .  S
C27         C113   1.433       .  S
C28         C125   1.436       .  S
C29         C107   1.466       .  S
C29         C112   1.465       .  S
C29         C137   1.468       .  S
C29         C250   1.466       .  S
C30          C95   1.468       .  S
C30         C100   1.466       .  S
C30         C101   1.465       .  S
C30         C108   1.466       .  S
C31          C94   1.466       .  S
C31         C105   1.466       .  S
C31         C124   1.468       .  S
C31         C133   1.465       .  S
C32          C92   1.468       .  S
C32          C93   1.466   1_545  S
C32          C99   1.466       .  S
C32         C117   1.465       .  S
O33         Cu41   2.009       .  S
O33          C43   1.276       .  A
O34         Cu41   2.003   1_455  S
O34          C44   1.276       .  A
O35         Cu41   2.013       .  S
O35          C45   1.277       .  A
O36         Cu41   2.010   1_545  S
O36          C46   1.277       .  A
O37         Cu42   2.003   1_545  S
O37          C46   1.276       .  A
O38         Cu42   2.009       .  S
O38          C45   1.276       .  A
O39         Cu42   2.010   1_455  S
O39          C44   1.277       .  A
O40         Cu42   2.013       .  S
O40          C43   1.277       .  A
Cu41        Cu42   2.380       .  S
C43          C89   1.436       .  S
C44         C104   1.433       .  S
C45          C88   1.436       .  S
C46          C81   1.433       .  S
O47         Cu55   2.009       .  S
O47          C57   1.276       .  A
O48         Cu55   2.003       .  S
O48          C58   1.276       .  A
O49         Cu55   2.013       .  S
O49          C59   1.277       .  A
O50         Cu55   2.010       .  S
O50          C60   1.277       .  A
O51         Cu56   2.003       .  S
O51          C60   1.276       .  A
O52         Cu56   2.009       .  S
O52          C59   1.276       .  A
O53         Cu56   2.010       .  S
O53          C58   1.277       .  A
O54         Cu56   2.013       .  S
O54          C57   1.277       .  A
Cu55        Cu56   2.380       .  S
C57          C80   1.436       .  S
C58          C73   1.433       .  S
C59          C98   1.436       .  S
C60         C109   1.433       .  S
C61          C69   1.466       .  S
C61          C71   1.466       .  S
C61          C84   1.465       .  S
C61         C128   1.468       .  S
C62          C70   1.466       .  S
C62         C116   1.465       .  S
C62         C144   1.468       .  S
C62         C211   1.466       .  S
C63          C66   1.466   1_455  S
C63          C72   1.466       .  S
C63          C76   1.465       .  S
C63          C85   1.468       .  S
C64          C65   1.466       .  S
C64          C68   1.466       .  S
C64          C77   1.468       .  S
C64         C129   1.465       .  S
C65          C66   1.207       .  T
C67         C206   1.466       .  S
C67          C68   1.207   1_556  T
C69          C70   1.207   1_455  T
C71          C72   1.207       .  T
C73          C74   1.204       .  T
C74          C75   1.410       .  S
C75          C76   1.205       .  T
C77          C78   1.207       .  T
C78          C79   1.413       .  S
C79          C80   1.206       .  T
C81          C82   1.204   1_655  T
C82          C83   1.410       .  S
C83          C84   1.205       .  T
C85          C86   1.207       .  T
C86          C87   1.413       .  S
C87          C88   1.206   1_455  T
C89          C90   1.206   1_565  T
C90          C91   1.413       .  S
C91          C92   1.207       .  T
C93          C94   1.207       .  T
C95          C96   1.207       .  T
C96          C97   1.413       .  S
C97          C98   1.206       .  T
C99         C100   1.207       .  T
C101        C102   1.205       .  T
C102        C103   1.410       .  S
C103        C104   1.204   1_545  T
C105        C106   1.207       .  T
C106        C173   1.466       .  S
C107        C108   1.207   1_565  T
C109        C110   1.204       .  T
C110        C111   1.410       .  S
C111        C112   1.205       .  T
C113        C114   1.204       .  T
C114        C115   1.409       .  S
C115        C116   1.205       .  T
C117        C118   1.205       .  T
C118        C119   1.410       .  S
C119        C120   1.204       .  T
C121        C122   1.206       .  T
C122        C123   1.413       .  S
C123        C124   1.207       .  T
C125        C126   1.206       .  T
C126        C127   1.413       .  S
C127        C128   1.207       .  T
C129        C130   1.205       .  T
C130        C131   1.410       .  S
C131        C132   1.204       .  T
C133        C134   1.205       .  T
C134        C135   1.410       .  S
C135        C136   1.204       .  T
C137        C138   1.207       .  T
C138        C139   1.413       .  S
C139        C140   1.206       .  T
C141        C142   1.206       .  T
C142        C143   1.413       .  S
C143        C144   1.207       .  T
O145       Cu153   2.003       .  S
O145        C155   1.276       .  A
O146       Cu153   2.009   1_545  S
O147       Cu153   2.010       .  S
O148       Cu153   2.013   1_455  S
O148        C158   1.277       .  A
O149       Cu154   2.009   1_455  S
O150       Cu154   2.003       .  S
O150        C157   1.276       .  A
O151       Cu154   2.013   1_545  S
O151        C156   1.277       .  A
O152       Cu154   2.010       .  S
C155        C276   1.433       .  S
C156        C285   1.436       .  S
C157        C280   1.433       .  S
C158        C284   1.436       .  S
O159       Cu167   2.003       .  S
O159        C169   1.276       .  A
O160       Cu167   2.009       .  S
O160        C170   1.276       .  A
O161       Cu167   2.010       .  S
O161        C171   1.277       .  A
O162       Cu167   2.013       .  S
O162        C172   1.277       .  A
O163       Cu168   2.009       .  S
O163        C172   1.276       .  A
O164       Cu168   2.003       .  S
O164        C171   1.276       .  A
O165       Cu168   2.013       .  S
O165        C170   1.277       .  A
O166       Cu168   2.010       .  S
O166        C169   1.277       .  A
Cu167      Cu168   2.380       .  S
C169        C264   1.433       .  S
C170        C265   1.436       .  S
C171        C257   1.433       .  S
C172        C269   1.436       .  S
C173        C251   1.466       .  S
C173        C256   1.465       .  S
C173        C281   1.468       .  S
C174        C239   1.468       .  S
C174        C244   1.466       .  S
C174        C245   1.465       .  S
C174        C252   1.466       .  S
C175        C238   1.466       .  S
C175        C249   1.466       .  S
C175        C268   1.468       .  S
C175        C277   1.465       .  S
C176        C236   1.468       .  S
C176        C237   1.466   1_545  S
C176        C243   1.466       .  S
C176        C261   1.465       .  S
O177       Cu185   2.009       .  S
O177        C187   1.276       .  A
O178       Cu185   2.003   1_455  S
O178        C188   1.276       .  A
O179       Cu185   2.013       .  S
O179        C189   1.277       .  A
O180       Cu185   2.010   1_545  S
O180        C190   1.277       .  A
O181       Cu186   2.003   1_545  S
O181        C190   1.276       .  A
O182       Cu186   2.009       .  S
O182        C189   1.276       .  A
O183       Cu186   2.010   1_455  S
O183        C188   1.277       .  A
O184       Cu186   2.013       .  S
O184        C187   1.277       .  A
Cu185      Cu186   2.380       .  S
C187        C233   1.436       .  S
C188        C248   1.433       .  S
C189        C232   1.436       .  S
C190        C225   1.433       .  S
O191       Cu199   2.009       .  S
O191        C201   1.276       .  A
O192       Cu199   2.003       .  S
O192        C202   1.276       .  A
O193       Cu199   2.013       .  S
O193        C203   1.277       .  A
O194       Cu199   2.010       .  S
O194        C204   1.277       .  A
O195       Cu200   2.003       .  S
O195        C204   1.276       .  A
O196       Cu200   2.009       .  S
O196        C203   1.276       .  A
O197       Cu200   2.010       .  S
O197        C202   1.277       .  A
O198       Cu200   2.013       .  S
O198        C201   1.277       .  A
Cu199      Cu200   2.380       .  S
C201        C224   1.436       .  S
C202        C217   1.433       .  S
C203        C242   1.436       .  S
C204        C253   1.433       .  S
C205        C213   1.466       .  S
C205        C215   1.466       .  S
C205        C228   1.465       .  S
C205        C272   1.468       .  S
C206        C214   1.466       .  S
C206        C260   1.465       .  S
C206        C288   1.468       .  S
C207        C210   1.466   1_455  S
C207        C216   1.466       .  S
C207        C220   1.465       .  S
C207        C229   1.468       .  S
C208        C209   1.466       .  S
C208        C212   1.466       .  S
C208        C221   1.468       .  S
C208        C273   1.465       .  S
C209        C210   1.207       .  T
C211        C212   1.207       .  T
C213        C214   1.207   1_455  T
C215        C216   1.207       .  T
C217        C218   1.204       .  T
C218        C219   1.410       .  S
C219        C220   1.205       .  T
C221        C222   1.207       .  T
C222        C223   1.413       .  S
C223        C224   1.206       .  T
C225        C226   1.204   1_655  T
C226        C227   1.410       .  S
C227        C228   1.205       .  T
C229        C230   1.207       .  T
C230        C231   1.413       .  S
C231        C232   1.206   1_455  T
C233        C234   1.206   1_565  T
C234        C235   1.413       .  S
C235        C236   1.207       .  T
C237        C238   1.207       .  T
C239        C240   1.207       .  T
C240        C241   1.413       .  S
C241        C242   1.206       .  T
C243        C244   1.207       .  T
C245        C246   1.205       .  T
C246        C247   1.410       .  S
C247        C248   1.204   1_545  T
C249        C250   1.207   1_556  T
C251        C252   1.207   1_565  T
C253        C254   1.204       .  T
C254        C255   1.410       .  S
C255        C256   1.205       .  T
C257        C258   1.204       .  T
C258        C259   1.409       .  S
C259        C260   1.205       .  T
C261        C262   1.205       .  T
C262        C263   1.410       .  S
C263        C264   1.204       .  T
C265        C266   1.206       .  T
C266        C267   1.413       .  S
C267        C268   1.207       .  T
C269        C270   1.206       .  T
C270        C271   1.413       .  S
C271        C272   1.207       .  T
C273        C274   1.205       .  T
C274        C275   1.410       .  S
C275        C276   1.204       .  T
C277        C278   1.205       .  T
C278        C279   1.410       .  S
C279        C280   1.204       .  T
C281        C282   1.207       .  T
C282        C283   1.413       .  S
C283        C284   1.206       .  T
C285        C286   1.206       .  T
C286        C287   1.413       .  S
C287        C288   1.207       .  T
