geometry optimzed in LAMMPS
_audit_creation_date              2020-11-30 
_audit_creation_method            'lammps2cif' 
_symmetry_space_group_name_H-M    'P1' 
_symmetry_Int_Tables_number       1 
_symmetry_cell_setting            triclinic 
loop_ 
_symmetry_equiv_pos_as_xyz 
  x,y,z 
_cell_length_a                    25.8751501 
_cell_length_b                    25.875000934517686 
_cell_length_c                    27.937156047445367 
_cell_angle_alpha                 89.99899411350636 
_cell_angle_beta                  90.00279079770125 
_cell_angle_gamma                 90.00191931443572 
loop_ 
_atom_site_label 
_atom_site_type_symbol 
_atom_site_fract_x 
_atom_site_fract_y 
_atom_site_fract_z 
_atom_site_charge 
O1          O  0.97015141  0.87710945  0.99072423    -0.72600
O2          O  0.98067796  0.01582953  0.94197263    -0.72700
O3          O  0.04495497  0.95100537  0.99064092    -0.72700
O4          O  0.90703172  0.94091051  0.94201057    -0.72800
O5          O  0.87601234  0.97127100  0.01110417    -0.72700
O6          O  0.01473635  0.98176705  0.05985520    -0.72700
O7          O  0.94992608  0.04605816  0.01118688    -0.72700
O8          O  0.93980095  0.90813878  0.05981786    -0.72700
Ni9        Ni  0.97698138  0.94528566  0.96386826     1.25400
Ni10       Ni  0.94419113  0.97808661  0.03795969     1.25400
C11         C  0.95182308  0.87007946  0.03283775     0.89500
C12         C  0.96623709  0.05356129  0.96852586     0.89500
C13         C  0.05246337  0.96731469  0.03330245     0.89500
C14         C  0.86897630  0.95294188  0.96899101     0.89700
O15         O  0.56372488  0.37709738  0.76104762    -0.72600
O16         O  0.55319678  0.51581659  0.80979602    -0.72700
O17         O  0.48892279  0.45099112  0.76112413    -0.72700
O18         O  0.62684043  0.44090140  0.80976499    -0.72800
O19         O  0.65786672  0.47126443  0.74067313    -0.72700
O20         O  0.51914790  0.48175553  0.69191151    -0.72700
O21         O  0.58395549  0.54604834  0.74058381    -0.72700
O22         O  0.59408202  0.40812905  0.69195572    -0.72700
Ni23       Ni  0.55689349  0.44527332  0.78790175     1.25400
Ni24       Ni  0.58969099  0.47807713  0.71381223     1.25400
C25         C  0.58205762  0.37006847  0.71893591     0.89500
C26         C  0.56764172  0.55354966  0.78324391     0.89500
C27         C  0.48141829  0.46730272  0.71846249     0.89500
C28         C  0.66489824  0.45293557  0.78278736     0.89700
C29         C  0.30166787  0.94912259  0.10047917     0.88300
C30         C  0.33660991  0.95315545  0.05625585    -0.52000
C31         C  0.38784166  0.94724750  0.06639688     0.11200
C32         C  0.39957746  0.93831189  0.11970145     0.22100
C33         C  0.31515427  0.89662263  0.12311019    -0.52700
C34         C  0.36657632  0.89117891  0.13306763     0.11300
C35         C  0.32240255  0.98955830  0.13568019    -0.52200
C36         C  0.37364488  0.98371949  0.14582537     0.11900
H37         H  0.32203869  0.95813840  0.02006827     0.16400
H38         H  0.44135104  0.93356273  0.12790635     0.02100
H39         H  0.28688325  0.86652992  0.13016734     0.16700
H40         H  0.29856416  0.01941990  0.15181974     0.16500
C41         C  0.44814980  0.23311786  0.35046041     0.88300
C42         C  0.45216759  0.19816319  0.30624391    -0.52000
C43         C  0.44628282  0.14693190  0.31640010     0.11200
C44         C  0.43738291  0.13520940  0.36971179     0.22100
C45         C  0.39566841  0.21961766  0.37311861    -0.52700
C46         C  0.39024723  0.16819654  0.38309146     0.11300
C47         C  0.48861333  0.21241038  0.38564799    -0.52200
C48         C  0.48279760  0.16116875  0.39580866     0.11900
H49         H  0.45712345  0.21272510  0.27005051     0.16400
H50         H  0.43265231  0.09343637  0.37792921     0.02100
H51         H  0.36557076  0.24787925  0.38018210     0.16700
H52         H  0.51847552  0.23626640  0.40176920     0.16500
C53         C  0.58571416  0.80275242  0.85045889     0.88300
C54         C  0.58169104  0.83770881  0.80624243    -0.52000
C55         C  0.58757521  0.88893984  0.81639868     0.11200
C56         C  0.59647942  0.90066045  0.86971038     0.22100
C57         C  0.63819723  0.81625363  0.87311748    -0.52700
C58         C  0.64361738  0.86767454  0.88309012     0.11300
C59         C  0.54525320  0.82345702  0.88564637    -0.52200
C60         C  0.55106835  0.87469859  0.89580708     0.11900
H61         H  0.57673416  0.82314805  0.77004874     0.16400
H62         H  0.60120959  0.94243330  0.87792780     0.02100
H63         H  0.66829710  0.78799314  0.88018026     0.16700
H64         H  0.51539362  0.79959929  0.90176759     0.16500
C65         C  0.73221700  0.08674219  0.60049221     0.88300
C66         C  0.69727312  0.08271669  0.55626650    -0.52000
C67         C  0.64604233  0.08862935  0.56640428     0.11200
C68         C  0.63430896  0.09756254  0.61970834     0.22100
C69         C  0.71873698  0.13924185  0.62312450    -0.52700
C70         C  0.66731579  0.14469065  0.63307896     0.11300
C71         C  0.71147838  0.04630587  0.63569050    -0.52200
C72         C  0.66023680  0.05214992  0.64583240     0.11900
H73         H  0.71184258  0.07773308  0.52007987     0.16400
H74         H  0.59253611  0.10231567  0.62791055     0.02100
H75         H  0.74701174  0.16933044  0.63018543     0.16700
H76         H  0.73531366  0.01644022  0.65183062     0.16500
O77         O  0.15786587  0.06460280  0.51112053    -0.72600
O78         O  0.01914508  0.05409348  0.55986704    -0.72700
O79         O  0.08395679  0.98981094  0.51119725    -0.72700
O80         O  0.09407580  0.12772606  0.55983564    -0.72800
O81         O  0.06371810  0.15875986  0.49074268    -0.72700
O82         O  0.05319853  0.02004432  0.44198345    -0.72700
O83         O  0.98891959  0.08485934  0.49065327    -0.72700
O84         O  0.12683953  0.09496819  0.44202774    -0.72700
Ni85       Ni  0.08968893  0.05778024  0.53797376     1.25400
Ni86       Ni  0.05689135  0.09058609  0.46388299     1.25400
C87         C  0.16489786  0.08293610  0.46900829     0.89500
C88         C  0.98141512  0.06854647  0.53331415     0.89500
C89         C  0.06764414  0.98231102  0.46853505     0.89500
C90         C  0.08204851  0.16578698  0.53285718     0.89700
O91         O  0.47017415  0.65877278  0.26103962    -0.72600
O92         O  0.48069158  0.52005606  0.30980159    -0.72700
O93         O  0.54496997  0.58487325  0.26112733    -0.72700
O94         O  0.40705439  0.59497846  0.30975952    -0.72800
O95         O  0.37602233  0.56461354  0.24066889    -0.72700
O96         O  0.51473941  0.55410708  0.19191577    -0.72700
O97         O  0.44992758  0.48982292  0.24059016    -0.72700
O98         O  0.43981137  0.62773904  0.19194888    -0.72700
Ni99       Ni  0.47700038  0.59059838  0.28790061     1.25400
Ni100      Ni  0.44419700  0.55779263  0.21381227     1.25400
C101        C  0.45184061  0.66580024  0.21892615     0.89500
C102        C  0.46624240  0.48232265  0.28325171     0.89500
C103        C  0.55247148  0.56855944  0.21846710     0.89500
C104        C  0.36899407  0.58294642  0.28278100     0.90500
C105        C  0.23221140  0.44912320  0.65129399     0.88300
C106        C  0.19726463  0.45316392  0.69551330    -0.52000
C107        C  0.14603393  0.44725066  0.68536838     0.11200
C108        C  0.13430409  0.43830230  0.63206503     0.22100
C109        C  0.21872726  0.39661758  0.62867356    -0.52700
C110        C  0.16730654  0.39116890  0.61871242     0.11300
C111        C  0.21148083  0.48954988  0.61608203    -0.52200
C112        C  0.16023954  0.48370548  0.60593376     0.11900
H113        H  0.21183179  0.45815576  0.73170116     0.16400
H114        H  0.09253138  0.43354871  0.62385714     0.02100
H115        H  0.24699894  0.36652531  0.62162482     0.16700
H116        H  0.23532074  0.51941011  0.59993871     0.16500
C117        C  0.94816493  0.30276746  0.90132086     0.88300
C118        C  0.95219342  0.33772987  0.94553205    -0.52000
C119        C  0.94630518  0.38895905  0.93536903     0.11200
C120        C  0.93739252  0.40067170  0.88205709     0.22100
C121        C  0.89567771  0.31626002  0.87866769    -0.52700
C122        C  0.89025416  0.36767902  0.86868877     0.11300
C123        C  0.98861938  0.32347202  0.86612511    -0.52200
C124        C  0.98280036  0.37471154  0.85595814     0.11900
H125        H  0.95715522  0.32317424  0.98172725     0.16400
H126        H  0.93265918  0.44244300  0.87383430     0.02100
H127        H  0.86557770  0.28799550  0.87161310     0.16700
H128        H  0.01847789  0.29961575  0.85000359     0.16500
C129        C  0.08573579  0.73311399  0.40131706     0.88300
C130        C  0.08170967  0.69814979  0.44552777    -0.52000
C131        C  0.08759898  0.64692137  0.43536494     0.11200
C132        C  0.09651098  0.63521096  0.38205359     0.22100
C133        C  0.13822278  0.71962429  0.37866697    -0.52700
C134        C  0.14364794  0.66820588  0.36868785     0.11300
C135        C  0.04528080  0.71240943  0.36611879    -0.52200
C136        C  0.05110118  0.66117049  0.35595207     0.11900
H137        H  0.07674632  0.71270360  0.48172252     0.16400
H138        H  0.10124522  0.59344013  0.37383109     0.02100
H139        H  0.16832100  0.74789047  0.37161334     0.16700
H140        H  0.01542038  0.73626510  0.34999618     0.16500
C141        C  0.80167095  0.58674082  0.15128888     0.88300
C142        C  0.83662282  0.58270747  0.19550862    -0.52000
C143        C  0.88785194  0.58862441  0.18536326     0.11200
C144        C  0.89957554  0.59756887  0.13205888     0.22100
C145        C  0.81514827  0.63924559  0.12866230    -0.52700
C146        C  0.86656759  0.64469799  0.11870056     0.11300
C147        C  0.82240187  0.54631260  0.11608132    -0.52200
C148        C  0.87364177  0.55216100  0.10593232     0.11900
H149        H  0.82205989  0.57771723  0.23169698     0.16400
H150        H  0.94134700  0.60232553  0.12385065     0.02100
H151        H  0.78687318  0.66933457  0.12160988     0.16700
H152        H  0.79856297  0.51644915  0.09994079     0.16500
C153        C  0.01897103  0.63519483  0.32127604    -0.16700
C154        C  0.99115690  0.61757431  0.29070379     0.07300
C155        C  0.95707735  0.60198279  0.25390862     0.09200
C156        C  0.92643211  0.59321384  0.22239868    -0.17600
C157        C  0.89964298  0.52005804  0.07125504    -0.16700
C158        C  0.91728909  0.49226174  0.04068457     0.07300
C159        C  0.93291067  0.45819320  0.00389484     0.09200
C160        C  0.94170058  0.42754806  0.97239232    -0.17600
C161        C  0.01492816  0.40068694  0.82128225    -0.16700
C162        C  0.04273929  0.41830755  0.79070972     0.07300
C163        C  0.07681509  0.43389878  0.75391421     0.09200
C164        C  0.10745739  0.44266600  0.72240400    -0.17600
C165        C  0.13423821  0.51581015  0.57125497    -0.16700
C166        C  0.11659570  0.54360997  0.54068321     0.07300
C167        C  0.10098136  0.57768258  0.50389191     0.09200
C168        C  0.09219806  0.60833021  0.47238830    -0.17600
C169        C  0.31747225  0.59303481  0.29957128    -0.16700
C170        C  0.27600316  0.60711977  0.31445702     0.07300
C171        C  0.22923394  0.62758322  0.33256683     0.09200
C172        C  0.19017709  0.64632292  0.34860121    -0.17600
C173        C  0.60446458  0.56772387  0.20001830    -0.16700
C174        C  0.64882338  0.57009208  0.18659275     0.07300
C175        C  0.70129549  0.57518859  0.17281604     0.09200
C176        C  0.74635694  0.58042181  0.16242762    -0.17600
C177        C  0.09213942  0.21730854  0.54964970    -0.16700
C178        C  0.10622552  0.25878043  0.56453168     0.07300
C179        C  0.12668968  0.30555650  0.58263028     0.09200
C180        C  0.14542845  0.34462307  0.59864969    -0.17600
C181        C  0.06680023  0.93031820  0.45008451    -0.16700
C182        C  0.06915645  0.88595976  0.43665544     0.07300
C183        C  0.07423361  0.83348804  0.42287165     0.09200
C184        C  0.07944630  0.78842694  0.41247344    -0.17600
C185        C  0.92942158  0.06771467  0.55176300    -0.16700
C186        C  0.88506398  0.07008787  0.56519123     0.07300
C187        C  0.83259354  0.07519008  0.57897126     0.09200
C188        C  0.78753260  0.08042581  0.58935969    -0.17600
C189        C  0.63423002  0.02003934  0.68050282    -0.16700
C190        C  0.61658372  0.99223810  0.71107136     0.07300
C191        C  0.60096523  0.95816789  0.74786313     0.09200
C192        C  0.59217838  0.92752482  0.77936978    -0.17600
C193        C  0.46708442  0.43032929  0.30170350    -0.16700
C194        C  0.46472628  0.38597013  0.31513278     0.07300
C195        C  0.45964756  0.33349694  0.32891530     0.09200
C196        C  0.45443533  0.28843400  0.33931044    -0.17600
C197        C  0.60746887  0.09321941  0.52936268    -0.16700
C198        C  0.57682849  0.10198601  0.49784808     0.07300
C199        C  0.54275071  0.11757351  0.46105000     0.09200
C200        C  0.51493405  0.13519179  0.43047872    -0.17600
C201        C  0.34372229  0.14630569  0.40318401    -0.16700
C202        C  0.30466557  0.12756533  0.41922202     0.07300
C203        C  0.25789364  0.10710516  0.43733402     0.09200
C204        C  0.21642193  0.09302337  0.45221967    -0.17600
C205        C  0.51893562  0.90067415  0.93047727    -0.16700
C206        C  0.49112368  0.91829504  0.96104783     0.07300
C207        C  0.45705100  0.93388760  0.99784448     0.09200
C208        C  0.42641340  0.94265746  0.02935750    -0.17600
C209        C  0.44168187  0.10834767  0.27937113    -0.16700
C210        C  0.43289988  0.07770473  0.24786341     0.07300
C211        C  0.41728864  0.04363362  0.21106947     0.09200
C212        C  0.39964788  0.01583101  0.18049862    -0.17600
C213        C  0.38845700  0.84463641  0.15313482    -0.16700
C214        C  0.40719660  0.80557082  0.16915516     0.07300
C215        C  0.42766117  0.75879447  0.18725297     0.09200
C216        C  0.44174809  0.71732230  0.20213386    -0.17600
C217        C  0.71642139  0.44285324  0.79958048    -0.16700
C218        C  0.75789294  0.42877088  0.81446573     0.07300
C219        C  0.80466501  0.40830719  0.83257246     0.09200
C220        C  0.84372377  0.38956521  0.84860390    -0.17600
C221        C  0.64544101  0.19123297  0.65314939    -0.16700
C222        C  0.62670488  0.23029802  0.66917191     0.07300
C223        C  0.60624197  0.27707384  0.68727009     0.09200
C224        C  0.59215405  0.31854577  0.70214874    -0.17600
C225        C  0.57943088  0.74743660  0.83930777    -0.16700
C226        C  0.57422302  0.70237430  0.82890937     0.07300
C227        C  0.56915010  0.64990218  0.81512278     0.09200
C228        C  0.56679619  0.60554365  0.80169232    -0.17600
C229        C  0.42942437  0.46813658  0.70001239    -0.16700
C230        C  0.38506401  0.46576797  0.68658844     0.07300
C231        C  0.33258986  0.46067132  0.67281584     0.09200
C232        C  0.28752670  0.45543882  0.66243095    -0.17600
C233        C  0.88844011  0.69124366  0.09863209    -0.16700
C234        C  0.90717669  0.73030963  0.08260921     0.07300
C235        C  0.92764087  0.77708509  0.06450884     0.09200
C236        C  0.94172875  0.81855687  0.04962744    -0.17600
C237        C  0.69014453  0.88956733  0.90317904    -0.16700
C238        C  0.72920311  0.90831067  0.91921248     0.07300
C239        C  0.77597719  0.92877402  0.93731914     0.09200
C240        C  0.81745075  0.94285677  0.95220214    -0.17600
C241        C  0.10445817  0.96814413  0.05175170    -0.16700
C242        C  0.14881725  0.96577010  0.06517879     0.07300
C243        C  0.20128935  0.96066803  0.07895672     0.09200
C244        C  0.24635154  0.95543401  0.08934432    -0.17600
C245        C  0.96708512  0.10555625  0.95007875    -0.16700
C246        C  0.96473314  0.14991673  0.93665300     0.07300
C247        C  0.95966102  0.20239081  0.92287284     0.09200
C248        C  0.95445194  0.24745350  0.91247682    -0.17600
loop_ 
_geom_bond_atom_site_label_1 
_geom_bond_atom_site_label_2 
_geom_bond_distance 
_geom_bond_site_symmetry_2 
_ccdc_geom_bond_type 
O1           Ni9   1.925       .  S
O1           C11   1.282   1_556  A
O2           Ni9   1.927   1_545  S
O2           C12   1.282       .  A
O3           Ni9   1.917   1_455  S
O3           C13   1.279   1_556  A
O4           Ni9   1.914       .  S
O4           C14   1.279       .  A
O5          Ni10   1.925       .  S
O5           C14   1.282   1_554  A
O6          Ni10   1.927   1_455  S
O6           C13   1.282       .  A
O7          Ni10   1.917   1_545  S
O7           C12   1.279   1_554  A
O8          Ni10   1.914       .  S
O8           C11   1.279       .  A
Ni9         Ni10   2.393   1_556  S
C11         C236   1.437       .  S
C12         C245   1.441       .  S
C13         C241   1.441       .  S
C14         C240   1.437       .  S
O15         Ni23   1.925       .  S
O15          C25   1.282       .  A
O16         Ni23   1.927       .  S
O16          C26   1.282       .  A
O17         Ni23   1.917       .  S
O17          C27   1.279       .  A
O18         Ni23   1.913       .  S
O18          C28   1.279       .  A
O19         Ni24   1.925       .  S
O19          C28   1.282       .  A
O20         Ni24   1.927       .  S
O20          C27   1.282       .  A
O21         Ni24   1.917       .  S
O21          C26   1.279       .  A
O22         Ni24   1.914       .  S
O22          C25   1.279       .  A
Ni23        Ni24   2.393       .  S
C25         C224   1.437       .  S
C26         C228   1.441       .  S
C27         C229   1.441       .  S
C28         C217   1.437       .  S
C29          C30   1.535       .  S
C29          C35   1.533       .  S
C29          C33   1.538       .  S
C29         C244   1.474       .  S
C30          H37   1.087       .  S
C30          C31   1.364       .  D
C31          C32   1.537       .  S
C31         C208   1.443       .  S
C32          C36   1.537       .  S
C32          C34   1.535       .  S
C32          H38   1.112       .  S
C33          H39   1.086       .  S
C33          C34   1.367       .  D
C34         C213   1.444       .  S
C35          H40   1.087   1_565  S
C35          C36   1.364       .  D
C36         C212   1.443   1_565  S
C41          C42   1.535       .  S
C41          C47   1.533       .  S
C41          C45   1.538       .  S
C41         C196   1.474       .  S
C42          H49   1.087       .  S
C42          C43   1.364       .  D
C43          C44   1.537       .  S
C43         C209   1.443       .  S
C44          C48   1.537       .  S
C44          C46   1.535       .  S
C44          H50   1.112       .  S
C45          H51   1.086       .  S
C45          C46   1.367       .  D
C46         C201   1.444       .  S
C47          H52   1.087       .  S
C47          C48   1.364       .  D
C48         C200   1.443       .  S
C53          C54   1.535       .  S
C53          C59   1.533       .  S
C53          C57   1.538       .  S
C53         C225   1.474       .  S
C54          H61   1.087       .  S
C54          C55   1.364       .  D
C55          C56   1.537       .  S
C55         C192   1.443       .  S
C56          C60   1.537       .  S
C56          C58   1.535       .  S
C56          H62   1.112       .  S
C57          H63   1.086       .  S
C57          C58   1.367       .  D
C58         C237   1.444       .  S
C59          H64   1.087       .  S
C59          C60   1.364       .  D
C60         C205   1.443       .  S
C65          C66   1.535       .  S
C65          C71   1.533       .  S
C65          C69   1.538       .  S
C65         C188   1.474       .  S
C66          H73   1.087       .  S
C66          C67   1.364       .  D
C67          C68   1.537       .  S
C67         C197   1.443       .  S
C68          C72   1.537       .  S
C68          C70   1.535       .  S
C68          H74   1.112       .  S
C69          H75   1.086       .  S
C69          C70   1.367       .  D
C70         C221   1.444       .  S
C71          H76   1.087       .  S
C71          C72   1.364       .  D
C72         C189   1.443       .  S
O77         Ni85   1.925       .  S
O77          C87   1.282       .  A
O78         Ni85   1.927       .  S
O78          C88   1.282   1_455  A
O79         Ni85   1.917   1_565  S
O79          C89   1.279       .  A
O80         Ni85   1.913       .  S
O80          C90   1.279       .  A
O81         Ni86   1.925       .  S
O81          C90   1.282       .  A
O82         Ni86   1.927       .  S
O82          C89   1.282   1_545  A
O83         Ni86   1.917   1_655  S
O83          C88   1.279       .  A
O84         Ni86   1.914       .  S
O84          C87   1.279       .  A
Ni85        Ni86   2.393       .  S
C87         C204   1.437       .  S
C88         C185   1.441       .  S
C89         C181   1.441       .  S
C90         C177   1.437       .  S
O91         Ni99   1.925       .  S
O91         C101   1.282       .  A
O92         Ni99   1.927       .  S
O92         C102   1.282       .  A
O93         Ni99   1.917       .  S
O93         C103   1.279       .  A
O94         Ni99   1.914       .  S
O94         C104   1.279       .  A
O95        Ni100   1.925       .  S
O95         C104   1.282       .  A
O96        Ni100   1.927       .  S
O96         C103   1.282       .  A
O97        Ni100   1.917       .  S
O97         C102   1.279       .  A
O98        Ni100   1.914       .  S
O98         C101   1.279       .  A
Ni99       Ni100   2.393       .  S
C101        C216   1.437       .  S
C102        C193   1.441       .  S
C103        C173   1.441       .  S
C104        C169   1.437       .  S
C105        C106   1.535       .  S
C105        C111   1.533       .  S
C105        C109   1.538       .  S
C105        C232   1.474       .  S
C106        H113   1.087       .  S
C106        C107   1.364       .  D
C107        C108   1.537       .  S
C107        C164   1.443       .  S
C108        C112   1.537       .  S
C108        C110   1.535       .  S
C108        H114   1.112       .  S
C109        H115   1.086       .  S
C109        C110   1.367       .  D
C110        C180   1.444       .  S
C111        H116   1.087       .  S
C111        C112   1.364       .  D
C112        C165   1.443       .  S
C117        C118   1.535       .  S
C117        C123   1.533       .  S
C117        C121   1.538       .  S
C117        C248   1.474       .  S
C118        H125   1.087       .  S
C118        C119   1.364       .  D
C119        C120   1.537       .  S
C119        C160   1.443       .  S
C120        C124   1.537       .  S
C120        C122   1.535       .  S
C120        H126   1.112       .  S
C121        H127   1.086       .  S
C121        C122   1.367       .  D
C122        C220   1.444       .  S
C123        H128   1.087   1_655  S
C123        C124   1.364       .  D
C124        C161   1.443   1_655  S
C129        C130   1.535       .  S
C129        C135   1.533       .  S
C129        C133   1.538       .  S
C129        C184   1.474       .  S
C130        H137   1.087       .  S
C130        C131   1.364       .  D
C131        C132   1.537       .  S
C131        C168   1.443       .  S
C132        C136   1.537       .  S
C132        C134   1.535       .  S
C132        H138   1.112       .  S
C133        H139   1.086       .  S
C133        C134   1.367       .  D
C134        C172   1.444       .  S
C135        H140   1.087       .  S
C135        C136   1.364       .  D
C136        C153   1.443       .  S
C141        C142   1.535       .  S
C141        C147   1.533       .  S
C141        C145   1.538       .  S
C141        C176   1.474       .  S
C142        H149   1.087       .  S
C142        C143   1.364       .  D
C143        C144   1.537       .  S
C143        C156   1.443       .  S
C144        C148   1.537       .  S
C144        C146   1.535       .  S
C144        H150   1.112       .  S
C145        H151   1.086       .  S
C145        C146   1.367       .  D
C146        C233   1.444       .  S
C147        H152   1.087       .  S
C147        C148   1.364       .  D
C148        C157   1.443       .  S
C153        C154   1.206   1_455  T
C154        C155   1.413       .  S
C155        C156   1.206       .  T
C157        C158   1.206       .  T
C158        C159   1.413       .  S
C159        C160   1.206   1_554  T
C161        C162   1.206       .  T
C162        C163   1.413       .  S
C163        C164   1.206       .  T
C165        C166   1.206       .  T
C166        C167   1.413       .  S
C167        C168   1.206       .  T
C169        C170   1.207       .  T
C170        C171   1.415       .  S
C171        C172   1.207       .  T
C173        C174   1.209       .  T
C174        C175   1.417       .  S
C175        C176   1.209       .  T
C177        C178   1.207       .  T
C178        C179   1.415       .  S
C179        C180   1.207       .  T
C181        C182   1.209       .  T
C182        C183   1.417       .  S
C183        C184   1.209       .  T
C185        C186   1.209       .  T
C186        C187   1.417       .  S
C187        C188   1.209       .  T
C189        C190   1.206   1_545  T
C190        C191   1.413       .  S
C191        C192   1.206       .  T
C193        C194   1.209       .  T
C194        C195   1.417       .  S
C195        C196   1.209       .  T
C197        C198   1.206       .  T
C198        C199   1.413       .  S
C199        C200   1.206       .  T
C201        C202   1.207       .  T
C202        C203   1.415       .  S
C203        C204   1.207       .  T
C205        C206   1.206       .  T
C206        C207   1.413       .  S
C207        C208   1.206   1_556  T
C209        C210   1.206       .  T
C210        C211   1.413       .  S
C211        C212   1.206       .  T
C213        C214   1.207       .  T
C214        C215   1.415       .  S
C215        C216   1.207       .  T
C217        C218   1.207       .  T
C218        C219   1.415       .  S
C219        C220   1.207       .  T
C221        C222   1.207       .  T
C222        C223   1.415       .  S
C223        C224   1.207       .  T
C225        C226   1.209       .  T
C226        C227   1.417       .  S
C227        C228   1.209       .  T
C229        C230   1.209       .  T
C230        C231   1.417       .  S
C231        C232   1.209       .  T
C233        C234   1.207       .  T
C234        C235   1.415       .  S
C235        C236   1.207       .  T
C237        C238   1.207       .  T
C238        C239   1.415       .  S
C239        C240   1.207       .  T
C241        C242   1.209       .  T
C242        C243   1.417       .  S
C243        C244   1.209       .  T
C245        C246   1.209       .  T
C246        C247   1.417       .  S
C247        C248   1.209       .  T
