geometry optimzed in LAMMPS
_audit_creation_date              2020-11-30 
_audit_creation_method            'lammps2cif' 
_symmetry_space_group_name_H-M    'P1' 
_symmetry_Int_Tables_number       1 
_symmetry_cell_setting            triclinic 
loop_ 
_symmetry_equiv_pos_as_xyz 
  x,y,z 
_cell_length_a                    26.74175571 
_cell_length_b                    26.009898877456553 
_cell_length_c                    26.302566356060122 
_cell_angle_alpha                 90.09353850347213 
_cell_angle_beta                  90.0406461509479 
_cell_angle_gamma                 89.84190274866684 
loop_ 
_atom_site_label 
_atom_site_type_symbol 
_atom_site_fract_x 
_atom_site_fract_y 
_atom_site_fract_z 
_atom_site_charge 
Fe1        Fe  0.57615135  0.87291020  0.17535633     1.65800
Fe2        Fe  0.66865751  0.93248627  0.11283013     1.73200
Fe3        Fe  0.61343167  0.82809801  0.06233160     1.54400
O4          O  0.59036555  0.76837593  0.11218179    -0.81300
O5          O  0.64306704  0.95507904  0.04351672    -0.79600
O6          O  0.60194535  0.80102954  0.18928752    -0.83800
O7          O  0.51635670  0.84225224  0.13177596    -0.78700
O8          O  0.68585524  0.80603124  0.07164153    -0.80400
O9          O  0.62045950  0.98692414  0.14661705    -0.83200
C10         C  0.50752622  0.83876293  0.08407467     0.97600
C11         C  0.59045496  0.76392949  0.16060510     1.05000
O12         O  0.61966473  0.87815687  0.11686815    -1.12200
O13         O  0.69844087  0.91475346  0.18165376    -0.74600
O14         O  0.62954890  0.90175637  0.22705235    -0.78100
O15         O  0.54054740  0.84926061  0.05122692    -0.78800
C16         C  0.67577752  0.91325718  0.22371328     0.96500
O17         O  0.54949199  0.94518271  0.16404209    -0.76700
O18         O  0.72223044  0.88305690  0.07998157    -0.81900
C19         C  0.64460282  0.92781741  0.00377924     0.99100
C20         C  0.72414552  0.83474036  0.07084710     1.05000
O21         O  0.63626428  0.87956613  0.00480522    -0.77600
C22         C  0.57516332  0.98605496  0.16214575     1.03300
Fe23       Fe  0.92286138  0.13048400  0.67606703     1.65800
Fe24       Fe  0.83242128  0.06824788  0.61198556     1.73200
Fe25       Fe  0.88901787  0.17111691  0.56073951     1.54400
O26         O  0.91234311  0.23151659  0.60958577    -0.81300
O27         O  0.85923616  0.04475150  0.54337431    -0.79600
O28         O  0.89683715  0.20358050  0.68758451    -0.83800
O29         O  0.98408322  0.15848488  0.63305013    -0.78700
O30         O  0.81637795  0.19425449  0.56695141    -0.80400
O31         O  0.88089248  0.01462438  0.64612167    -0.83200
C32         C  0.99440213  0.15741033  0.58556220     0.97600
C33         C  0.90959618  0.23910759  0.65756275     1.05000
O34         O  0.88075150  0.12312610  0.61656644    -1.12200
O35         O  0.80112986  0.08553657  0.68044009    -0.74600
O36         O  0.86855758  0.10261460  0.72691146    -0.78100
O37         O  0.96155659  0.14769875  0.55225385    -0.78800
C38         C  0.82300888  0.08874092  0.72290419     0.96500
O39         O  0.95004432  0.05799427  0.66728830    -0.76700
O40         O  0.77952220  0.11755590  0.57782129    -0.81900
C41         C  0.85804853  0.07117887  0.50324432     0.99100
C42         C  0.77809319  0.16536434  0.56619175     1.05000
O43         O  0.86650288  0.11929766  0.50369011    -0.77600
C44         C  0.92585398  0.01640167  0.66260087     1.03300
Fe45       Fe  0.33065288  0.43753466  0.39487336     1.65800
Fe46       Fe  0.42452792  0.37950099  0.33184496     1.73200
Fe47       Fe  0.37324132  0.32302021  0.43366556     1.54400
O48         O  0.34916634  0.37001311  0.49416567    -0.81300
O49         O  0.40206812  0.30916644  0.30732600    -0.79600
O50         O  0.35747168  0.45011861  0.46646531    -0.83800
O51         O  0.27344351  0.39013692  0.42481282    -0.78700
O52         O  0.44589764  0.33363602  0.45473486    -0.80400
O53         O  0.37340659  0.41241727  0.28046250    -0.83200
C54         C  0.26638916  0.34151673  0.42547271     0.97600
C55         C  0.34775850  0.41849351  0.50162523     1.05000
O56         O  0.37641978  0.38009322  0.38645265    -1.12200
O57         O  0.45123427  0.44975016  0.35153904    -0.74600
O58         O  0.38051105  0.49250000  0.36503755    -0.78100
O59         O  0.30057952  0.31005663  0.41326231    -0.78800
C60         C  0.42609823  0.49087448  0.35091413     0.96500
O61         O  0.30259951  0.42751979  0.32364377    -0.76700
O62         O  0.48015813  0.34635831  0.37812465    -0.81900
C63         C  0.40536463  0.26851728  0.33324168     0.99100
C64         C  0.48331963  0.33371483  0.42501153     1.05000
O65         O  0.39736679  0.26793138  0.38089479    -0.77600
C66         C  0.32742302  0.42583349  0.28260620     1.03300
Fe67       Fe  0.17153549  0.56506705  0.88535429     1.65800
Fe68       Fe  0.06742680  0.61566710  0.83644428     1.73200
Fe69       Fe  0.12968847  0.67803312  0.92931144     1.54400
O70         O  0.15567348  0.62984335  0.98840161    -0.81300
O71         O  0.08244766  0.68627874  0.80707108    -0.79600
O72         O  0.15212403  0.54933515  0.95842298    -0.83800
O73         O  0.23007874  0.61190010  0.91277382    -0.78700
O74         O  0.05876725  0.67043643  0.95703875    -0.80400
O75         O  0.11372942  0.58327294  0.77963841    -0.83200
C76         C  0.23649228  0.66039506  0.91293745     0.97600
C77         C  0.15841818  0.58104476  0.99463796     1.05000
O78         O  0.12241974  0.62007814  0.88376588    -1.12200
O79         O  0.04736414  0.54492009  0.86340252    -0.74600
O80         O  0.12179904  0.50851391  0.85763457    -0.78100
O81         O  0.20092656  0.69102686  0.90382803    -0.78800
C82         C  0.07429955  0.50606945  0.85483165     0.96500
O83         O  0.19111354  0.58094919  0.81230987    -0.76700
O84         O  0.01620729  0.64776626  0.88739499    -0.81900
C85         C  0.08859302  0.72863140  0.83001175     0.99100
C86         C  0.01814348  0.66475369  0.93283622     1.05000
O87         O  0.10379061  0.73155850  0.87589466    -0.77600
C88         C  0.16104058  0.57701223  0.77520411     1.03300
C89         C  0.21143243  0.54552125  0.12519710     0.16300
C90         C  0.23318172  0.54537332  0.17362930    -0.32700
C91         C  0.25752928  0.50023531  0.18926575     0.20700
C92         C  0.26056561  0.45721327  0.15815666     0.02900
C93         C  0.23785443  0.45701805  0.11025010    -0.22400
C94         C  0.21322774  0.50199596  0.09475718     0.12100
S95         S  0.18390371  0.59768593  0.09708156    -0.06100
C96         C  0.17441091  0.56014384  0.04394781    -0.09600
C97         C  0.19131968  0.50990225  0.04857968    -0.26200
S98         S  0.29370382  0.40699857  0.18342377    -0.03400
C99         C  0.30225432  0.44407880  0.23677843    -0.16800
C100        C  0.28101874  0.49262637  0.23472569    -0.14800
H101        H  0.23200634  0.57919200  0.19767782     0.20600
H102        H  0.24000908  0.42359240  0.08573492     0.16600
H103        H  0.19047511  0.48142729  0.01848871     0.19100
H104        H  0.28290217  0.52086076  0.26499401     0.14900
C105        C  0.23525829  0.54531039  0.65606278     0.16300
C106        C  0.26819534  0.54568077  0.61468648    -0.32700
C107        C  0.28721086  0.49825131  0.59796242     0.20700
C108        C  0.27399282  0.45244240  0.62115914     0.02900
C109        C  0.24098988  0.45203101  0.66241392    -0.22400
C110        C  0.22201294  0.49940852  0.67911183     0.12100
S111        S  0.21065361  0.59891039  0.68447391    -0.06100
C112        C  0.18198965  0.55878353  0.72728886    -0.09600
C113        C  0.19137450  0.50699227  0.71993836    -0.26200
S114        S  0.29901955  0.39886648  0.59343325    -0.03400
C115        C  0.32717905  0.43852378  0.54959492    -0.16800
C116        C  0.31807692  0.49054078  0.55720369    -0.14800
H117        H  0.27872794  0.58135218  0.59647306     0.20600
H118        H  0.23048899  0.41635934  0.68066052     0.16600
H119        H  0.17908595  0.47674033  0.74520281     0.19100
H120        H  0.33070082  0.52093715  0.53224972     0.12500
C121        C  0.61486695  0.28721565  0.46117039     0.16300
C122        C  0.66607533  0.27629765  0.46463579    -0.32700
C123        C  0.68138314  0.24026166  0.50116808     0.20700
C124        C  0.64731736  0.21520783  0.53212306     0.02900
C125        C  0.59622312  0.22667730  0.52915077    -0.22400
C126        C  0.58104863  0.26355488  0.49342958     0.12100
S127        S  0.58823269  0.32842952  0.41825400    -0.06100
C128        C  0.53116060  0.31468095  0.44518304    -0.09600
C129        C  0.53312656  0.27967994  0.48486734    -0.26200
S130        S  0.67339327  0.17116986  0.57255735    -0.03400
C131        C  0.73088396  0.18817793  0.54873187    -0.16800
C132        C  0.72945125  0.22525292  0.51093518    -0.14800
H133        H  0.69280035  0.29498176  0.43993320     0.20600
H134        H  0.56944876  0.20767803  0.55356181     0.16600
H135        H  0.50084790  0.26533898  0.50520852     0.19100
H136        H  0.76194801  0.23998955  0.49124233     0.12500
C137        C  0.10883297  0.19919204  0.51033709     0.16300
C138        C  0.14359970  0.20792278  0.47145346    -0.32700
C139        C  0.16783873  0.25568611  0.47058071     0.20700
C140        C  0.15778064  0.29327729  0.50660317     0.02900
C141        C  0.12401506  0.28399134  0.54634593    -0.22400
C142        C  0.10008808  0.23599920  0.54748189     0.12100
S143        S  0.07104375  0.14651782  0.51436575    -0.06100
C144        C  0.04368967  0.17390505  0.56721206    -0.09600
C145        C  0.06372191  0.22099172  0.58104451    -0.26200
S146        S  0.19112554  0.34870106  0.49864375    -0.03400
C147        C  0.22009547  0.32031991  0.44717663    -0.16800
C148        C  0.20373552  0.27084835  0.43662887    -0.14800
H149        H  0.15074549  0.17912272  0.44256135     0.20600
H150        H  0.11624721  0.31311655  0.57475666     0.16600
H151        H  0.04931246  0.24503587  0.61122931     0.19100
H152        H  0.21897849  0.24640547  0.40704557     0.12500
C153        C  0.98931445  0.39919334  0.80395676     0.16300
C154        C  0.94998167  0.36511092  0.79314680    -0.32700
C155        C  0.94989118  0.34070656  0.74536602     0.20700
C156        C  0.98653377  0.35087900  0.70955731     0.02900
C157        C  0.02633789  0.38397758  0.72077393    -0.22400
C158        C  0.02719444  0.40720109  0.76893974     0.12100
S159        S  0.99475479  0.43561810  0.85801805    -0.06100
C160        C  0.04982257  0.45999739  0.83401511    -0.09600
C161        C  0.06235150  0.44122459  0.78635145    -0.26200
S162        S  0.98007021  0.31749458  0.65401056    -0.03400
C163        C  0.92890520  0.28722447  0.67991338    -0.16800
C164        C  0.91691169  0.30384356  0.72872147    -0.14800
H165        H  0.92079936  0.35791064  0.82072758     0.20600
H166        H  0.05558507  0.39108900  0.69322471     0.16600
H167        H  0.09360900  0.45468402  0.76398652     0.19100
H168        H  0.88732122  0.28777655  0.75180841     0.12500
C169        C  0.97748395  0.88537288  0.70399938     0.16300
C170        C  0.98709764  0.83337580  0.71342119    -0.32700
C171        C  0.02436554  0.82145045  0.74907991     0.20700
C172        C  0.05062290  0.85928106  0.77485660     0.02900
C173        C  0.04175351  0.91127405  0.76463589    -0.22400
C174        C  0.00486401  0.92318702  0.72855888     0.12100
S175        S  0.93185562  0.90824027  0.66426956    -0.06100
C176        C  0.95082788  0.96934758  0.68018039    -0.09600
C177        C  0.99012835  0.97131144  0.71456560    -0.26200
S178        S  0.09122388  0.83648284  0.81991509    -0.03400
C179        C  0.07330790  0.77534307  0.80280929    -0.16800
C180        C  0.03777498  0.77334751  0.76442976    -0.14800
H181        H  0.96589053  0.80352322  0.69450309     0.20600
H182        H  0.06200615  0.94115258  0.78457388     0.16600
H183        H  0.00604654  0.00631995  0.72990147     0.19100
H184        H  0.02079705  0.73841511  0.75014180     0.12500
C185        C  0.73895448  0.94837049  0.35039501     0.16300
C186        C  0.75394773  0.95427553  0.40109477    -0.32700
C187        C  0.79057703  0.99135664  0.41177298     0.20700
C188        C  0.81107464  0.02185093  0.37403039     0.02900
C189        C  0.79711192  0.01494637  0.32311800    -0.22400
C190        C  0.76089584  0.97742515  0.31236834     0.12100
S191        S  0.69266144  0.90790828  0.32965776    -0.06100
C192        C  0.70418889  0.92934363  0.26893829    -0.09600
C193        C  0.74160105  0.96609737  0.26558936    -0.26200
S194        S  0.85097834  0.06840950  0.39598945    -0.03400
C195        C  0.84088237  0.04544034  0.45648987    -0.16800
C196        C  0.80822182  0.00410502  0.45884723    -0.14800
H197        H  0.73704408  0.93176851  0.43108313     0.20600
H198        H  0.81289186  0.03855187  0.29332351     0.16600
H199        H  0.75297130  0.98483795  0.23072407     0.19100
H200        H  0.79571382  0.98616438  0.49372173     0.12500
C201        C  0.76423581  0.04915894  0.85031853     0.16300
C202        C  0.75224987  0.04067300  0.90140564    -0.32700
C203        C  0.71409231  0.00539906  0.91216714     0.20700
C204        C  0.68931976  0.97879522  0.87408507     0.02900
C205        C  0.70053778  0.98816407  0.82279327    -0.22400
C206        C  0.73825612  0.02416399  0.81198840     0.12100
S207        S  0.81130470  0.08834203  0.82941672    -0.06100
C208        C  0.79486526  0.07218595  0.76819784    -0.09600
C209        C  0.75527442  0.03775303  0.76481359    -0.26200
S210        S  0.64732845  0.93412886  0.89602613    -0.03400
C211        C  0.66241759  0.95294778  0.95698291    -0.16800
C212        C  0.69825819  0.99135740  0.95947015    -0.14800
H213        H  0.77232663  0.06012579  0.93155709     0.20600
H214        H  0.68134891  0.96773586  0.79268099     0.16600
H215        H  0.74087637  0.02199672  0.72959575     0.19100
H216        H  0.71369964  0.00663880  0.99444537     0.12500
C217        C  0.54062369  0.63652211  0.21449521     0.16300
C218        C  0.52844521  0.58552122  0.22629079    -0.32700
C219        C  0.49722171  0.57702427  0.26844176     0.20700
C220        C  0.47766016  0.61725482  0.29683769     0.02900
C221        C  0.49042514  0.66811286  0.28551063    -0.22400
C222        C  0.52272568  0.67650940  0.24430893     0.12100
S223        S  0.57732743  0.65576033  0.16443688    -0.06100
C224        C  0.56995428  0.71800575  0.18551990    -0.09600
C225        C  0.53988048  0.72302948  0.22820981    -0.26200
S226        S  0.43813813  0.59869857  0.34474820    -0.03400
C227        C  0.44992838  0.53598134  0.32763528    -0.16800
C228        C  0.48187617  0.53040412  0.28635014    -0.14800
H229        H  0.54272746  0.55385708  0.20375278     0.20600
H230        H  0.47592404  0.69979804  0.30787922     0.16600
H231        H  0.53016889  0.75930671  0.24599779     0.19100
H232        H  0.49233705  0.49390627  0.26947421     0.12500
C233        C  0.52456283  0.11604383  0.20886774     0.16300
C234        C  0.51236243  0.16769799  0.21767642    -0.32700
C235        C  0.47603239  0.17831637  0.25479785     0.20700
C236        C  0.45393073  0.13964928  0.28313325     0.02900
C237        C  0.46583229  0.08809839  0.27406009    -0.22400
C238        C  0.50094901  0.07740534  0.23592989     0.12100
S239        S  0.56760091  0.09441518  0.16547777    -0.06100
C240        C  0.55182026  0.03276230  0.18281162    -0.09600
C241        C  0.51613541  0.02974589  0.22086657    -0.26200
S242        S  0.41297117  0.16084832  0.32854236    -0.03400
C243        C  0.42434593  0.22231893  0.30771399    -0.16800
C244        C  0.45870422  0.22577680  0.26836948    -0.14800
H245        H  0.53012048  0.19821403  0.19639499     0.20600
H246        H  0.44832668  0.05760331  0.29559213     0.16600
H247        H  0.50251596  0.99427665  0.23729975     0.19100
H248        H  0.47176790  0.26144251  0.25188902     0.12500
C249        C  0.85601062  0.78632261  0.03855503     0.16300
C250        C  0.90743753  0.77916210  0.03130970    -0.32700
C251        C  0.92271791  0.73631539  0.00273004     0.20700
C252        C  0.88849337  0.70226497  0.98191684     0.02900
C253        C  0.83721616  0.70865254  0.99032744    -0.22400
C254        C  0.82197874  0.75130279  0.01908675     0.12100
S255        S  0.82935449  0.83753862  0.06930397    -0.06100
C256        C  0.77190002  0.81070437  0.05661733    -0.09600
C257        C  0.77379729  0.76478405  0.02983941    -0.26200
S258        S  0.91430848  0.65566249  0.94423083    -0.03400
C259        C  0.97186927  0.68174780  0.95759805    -0.16800
C260        C  0.97073567  0.72413930  0.98959724    -0.14800
H261        H  0.93428487  0.80637765  0.04626456     0.20600
H262        H  0.81027733  0.68226844  0.97412216     0.16600
H263        H  0.74142643  0.74304689  0.01764146     0.19100
H264        H  0.00317882  0.74645522  0.00049228     0.12500
C265        C  0.39942632  0.75214236  0.04277590     0.16300
C266        C  0.36674890  0.71050514  0.03568658    -0.32700
C267        C  0.34122025  0.70705508  0.98904542     0.20700
C268        C  0.34757564  0.74373992  0.95141953     0.02900
C269        C  0.38105130  0.78461444  0.95806311    -0.22400
C270        C  0.40678232  0.78785282  0.00446448     0.12100
S271        S  0.43473571  0.76289167  0.09605385    -0.06100
C272        C  0.46069756  0.81524188  0.06582201    -0.09600
C273        C  0.44198457  0.82388511  0.01733869    -0.26200
S274        S  0.30893262  0.73637051  0.90017762    -0.03400
C275        C  0.28444136  0.68269979  0.92914109    -0.16800
C276        C  0.30568810  0.67127054  0.97598224    -0.14800
H277        H  0.36112431  0.68231520  0.06537298     0.20600
H278        H  0.38625940  0.81313580  0.92860599     0.16600
H279        H  0.45529465  0.85351066  0.99185923     0.19100
H280        H  0.29275843  0.64106736  0.00101490     0.12500
loop_ 
_geom_bond_atom_site_label_1 
_geom_bond_atom_site_label_2 
_geom_bond_distance 
_geom_bond_site_symmetry_2 
_ccdc_geom_bond_type 
Fe1          O17   2.031       .  S
Fe1           O7   2.123       .  S
Fe1          O14   2.110       .  S
Fe1           O6   2.025       .  S
Fe1          O12   1.935       .  S
Fe2           O5   2.034       .  S
Fe2           O9   2.108       .  S
Fe2          O13   2.030       .  S
Fe2          O18   2.107       .  S
Fe2          O12   1.933       .  S
Fe3          O21   2.113       .  S
Fe3           O8   2.033       .  S
Fe3          O15   2.045       .  S
Fe3           O4   2.127       .  S
Fe3          O12   1.943       .  S
O4           C11   1.279       .  A
O5           C19   1.263       .  A
O6           C11   1.262       .  A
O7           C10   1.280       .  A
O8           C20   1.269       .  A
O9           C22   1.279       .  A
C10          O15   1.266       .  A
C10         C272   1.475       .  S
C11         C224   1.471       .  S
O13          C16   1.262       .  A
O14          C16   1.276       .  A
C16         C192   1.472       .  S
O17          C22   1.268       .  A
O18          C20   1.280       .  A
C19          O21   1.276       .  A
C19         C211   1.475   1_554  S
C20         C256   1.469       .  S
C22         C240   1.468   1_565  S
Fe23         O39   2.032       .  S
Fe23         O29   2.122       .  S
Fe23         O36   2.106       .  S
Fe23         O28   2.045       .  S
Fe23         O34   1.937       .  S
Fe24         O27   2.035       .  S
Fe24         O31   2.103       .  S
Fe24         O35   2.035       .  S
Fe24         O40   2.108       .  S
Fe24         O34   1.932       .  S
Fe25         O43   2.104       .  S
Fe25         O30   2.039       .  S
Fe25         O37   2.044       .  S
Fe25         O26   2.123       .  S
Fe25         O34   1.942       .  S
O26          C33   1.279       .  A
O27          C41   1.261       .  A
O28          C33   1.264       .  A
O29          C32   1.280       .  A
O30          C42   1.272       .  A
O31          C44   1.279       .  A
C32          O37   1.266       .  A
C32         C144   1.469   1_655  S
C33         C163   1.476       .  S
O35          C38   1.263       .  A
O36          C38   1.276       .  A
C38         C208   1.475       .  S
O39          C44   1.268       .  A
O40          C42   1.282       .  A
C41          O43   1.272       .  A
C41         C195   1.473       .  S
C42         C131   1.467       .  S
C44         C176   1.468   1_545  S
Fe45         O61   2.034       .  S
Fe45         O51   2.120       .  S
Fe45         O58   2.110       .  S
Fe45         O50   2.041       .  S
Fe45         O56   1.941       .  S
Fe46         O49   2.031       .  S
Fe46         O53   2.103       .  S
Fe46         O57   2.030       .  S
Fe46         O62   2.105       .  S
Fe46         O56   1.929       .  S
Fe47         O65   2.094       .  S
Fe47         O52   2.039       .  S
Fe47         O59   2.044       .  S
Fe47         O48   2.105       .  S
Fe47         O56   1.939       .  S
O48          C55   1.276       .  A
O49          C63   1.262       .  A
O50          C55   1.266       .  A
O51          C54   1.279       .  A
O52          C64   1.270       .  A
O53          C66   1.279       .  A
C54          O59   1.267       .  A
C54         C147   1.472       .  S
C55         C115   1.471       .  S
O57          C60   1.262       .  A
O58          C60   1.275       .  A
C60         C227   1.471       .  S
O61          C66   1.268       .  A
O62          C64   1.280       .  A
C63          O65   1.272       .  A
C63         C243   1.465       .  S
C64         C128   1.470       .  S
C66          C99   1.459       .  S
Fe67         O83   2.035       .  S
Fe67         O73   2.112       .  S
Fe67         O80   2.114       .  S
Fe67         O72   2.034       .  S
Fe67         O78   1.940       .  S
Fe68         O71   2.035       .  S
Fe68         O75   2.114       .  S
Fe68         O79   2.046       .  S
Fe68         O84   2.088       .  S
Fe68         O78   1.929       .  S
Fe69         O87   2.096       .  S
Fe69         O74   2.043       .  S
Fe69         O81   2.049       .  S
Fe69         O70   2.114       .  S
Fe69         O78   1.934       .  S
O70          C77   1.282       .  A
O71          C85   1.266       .  A
O72          C77   1.270       .  A
O73          C76   1.273       .  A
O74          C86   1.268       .  A
O75          C88   1.281       .  A
C76          O81   1.262       .  A
C76         C275   1.471       .  S
C77          C96   1.470   1_556  S
O79          C82   1.259       .  A
O80          C82   1.274       .  A
C82         C160   1.472       .  S
O83          C88   1.268       .  A
O84          C86   1.275       .  A
C85          O87   1.275       .  A
C85         C179   1.468       .  S
C86         C259   1.466   1_455  S
C88         C112   1.458       .  S
C89          S95   1.711       .  A
C89          C94   1.386       .  A
C89          C90   1.400       .  A
C90          C91   1.403       .  A
C90         H101   1.083       .  S
C91         C100   1.365       .  A
C91          C92   1.387       .  A
C92          S98   1.711       .  A
C92          C93   1.398       .  A
C93          C94   1.402       .  A
C93         H102   1.083       .  S
C94          C97   1.364       .  A
S95          C96   1.723       .  A
C96          C97   1.387       .  A
C97         H103   1.083       .  S
S98          C99   1.717       .  A
C99         C100   1.384       .  A
C100        H104   1.083       .  S
C105        S111   1.711       .  A
C105        C110   1.387       .  A
C105        C106   1.401       .  A
C106        C107   1.403       .  A
C106        H117   1.083       .  S
C107        C116   1.368       .  A
C107        C108   1.386       .  A
C108        S114   1.707       .  A
C108        C109   1.399       .  A
C109        C110   1.401       .  A
C109        H118   1.083       .  S
C110        C113   1.365       .  A
S111        C112   1.719       .  A
C112        C113   1.383       .  A
C113        H119   1.083       .  S
S114        C115   1.723       .  A
C115        C116   1.388       .  A
C116        H120   1.083       .  S
C121        S127   1.711       .  A
C121        C126   1.387       .  A
C121        C122   1.401       .  A
C122        C123   1.403       .  A
C122        H133   1.083       .  S
C123        C132   1.367       .  A
C123        C124   1.387       .  A
C124        S130   1.711       .  A
C124        C125   1.400       .  A
C125        C126   1.403       .  A
C125        H134   1.083       .  S
C126        C129   1.366       .  A
S127        C128   1.722       .  A
C128        C129   1.387       .  A
C129        H135   1.083       .  S
S130        C131   1.720       .  A
C131        C132   1.387       .  A
C132        H136   1.083       .  S
C137        S143   1.708       .  A
C137        C142   1.386       .  A
C137        C138   1.402       .  A
C138        C139   1.403       .  A
C138        H149   1.083       .  S
C139        C148   1.371       .  A
C139        C140   1.386       .  A
C140        S146   1.710       .  A
C140        C141   1.403       .  A
C141        C142   1.405       .  A
C141        H150   1.083       .  S
C142        C145   1.372       .  A
S143        C144   1.723       .  A
C144        C145   1.386       .  A
C145        H151   1.080       .  S
S146        C147   1.724       .  A
C147        C148   1.388       .  A
C148        H152   1.083       .  S
C153        S159   1.714       .  A
C153        C158   1.386   1_655  A
C153        C154   1.406       .  A
C154        C155   1.407       .  A
C154        H165   1.083       .  S
C155        C164   1.375       .  A
C155        C156   1.386       .  A
C156        S162   1.707       .  A
C156        C157   1.402   1_655  A
C157        C158   1.403       .  A
C157        H166   1.083       .  S
C158        C161   1.371       .  A
S159        C160   1.725   1_655  A
C160        C161   1.386       .  A
C161        H167   1.082       .  S
S162        C163   1.722       .  A
C163        C164   1.391       .  A
C164        H168   1.083       .  S
C169        S175   1.712       .  A
C169        C174   1.386   1_655  A
C169        C170   1.398       .  A
C170        C171   1.403   1_655  A
C170        H181   1.083       .  S
C171        C180   1.362       .  A
C171        C172   1.386       .  A
C172        S178   1.712       .  A
C172        C173   1.399       .  A
C173        C174   1.403       .  A
C173        H182   1.083       .  S
C174        C177   1.362   1_455  A
S175        C176   1.721       .  A
C176        C177   1.387       .  A
C177        H183   1.083   1_665  S
S178        C179   1.721       .  A
C179        C180   1.387       .  A
C180        H184   1.083       .  S
C185        S191   1.715       .  A
C185        C190   1.386       .  A
C185        C186   1.401       .  A
C186        C187   1.404       .  A
C186        H197   1.083       .  S
C187        C196   1.365   1_565  A
C187        C188   1.386   1_565  A
C188        S194   1.715       .  A
C188        C189   1.401       .  A
C189        C190   1.405   1_545  A
C189        H198   1.083       .  S
C190        C193   1.366       .  A
S191        C192   1.721       .  A
C192        C193   1.389       .  A
C193        H199   1.083       .  S
S194        C195   1.722       .  A
C195        C196   1.389       .  A
C196        H200   1.083   1_545  S
C201        S207   1.713       .  A
C201        C206   1.386       .  A
C201        C202   1.400       .  A
C202        C203   1.403       .  A
C202        H213   1.083       .  S
C203        C212   1.365   1_545  A
C203        C204   1.386   1_545  A
C204        S210   1.719       .  A
C204        C205   1.404       .  A
C205        C206   1.408   1_565  A
C205        H214   1.083       .  S
C206        C209   1.369       .  A
S207        C208   1.721       .  A
C208        C209   1.391       .  A
C209        H215   1.083       .  S
S210        C211   1.724       .  A
C211        C212   1.388       .  A
C212        H216   1.083   1_565  S
C217        S223   1.719       .  A
C217        C222   1.386       .  A
C217        C218   1.402       .  A
C218        C219   1.407       .  A
C218        H229   1.083       .  S
C219        C228   1.366       .  A
C219        C220   1.386       .  A
C220        S226   1.716       .  A
C220        C221   1.400       .  A
C221        C222   1.404       .  A
C221        H230   1.083       .  S
C222        C225   1.363       .  A
S223        C224   1.721       .  A
C224        C225   1.387       .  A
C225        H231   1.084       .  S
S226        C227   1.720       .  A
C227        C228   1.389       .  A
C228        H232   1.083       .  S
C233        S239   1.715       .  A
C233        C238   1.386       .  A
C233        C234   1.401       .  A
C234        C235   1.404       .  A
C234        H245   1.083       .  S
C235        C244   1.364       .  A
C235        C236   1.387       .  A
C236        S242   1.711       .  A
C236        C237   1.397       .  A
C237        C238   1.401       .  A
C237        H246   1.083       .  S
C238        C241   1.362       .  A
S239        C240   1.722       .  A
C240        C241   1.386       .  A
C241        H247   1.083   1_545  S
S242        C243   1.719       .  A
C243        C244   1.388       .  A
C244        H248   1.083       .  S
C249        S255   1.711       .  A
C249        C254   1.387       .  A
C249        C250   1.400       .  A
C250        C251   1.403       .  A
C250        H261   1.083       .  S
C251        C260   1.366   1_554  A
C251        C252   1.387   1_554  A
C252        S258   1.709       .  A
C252        C253   1.399       .  A
C253        C254   1.401   1_556  A
C253        H262   1.083       .  S
C254        C257   1.364       .  A
S255        C256   1.721       .  A
C256        C257   1.386       .  A
C257        H263   1.083       .  S
S258        C259   1.720       .  A
C259        C260   1.386       .  A
C260        H264   1.083   1_656  S
C265        S271   1.712       .  A
C265        C270   1.386       .  A
C265        C266   1.406       .  A
C266        C267   1.406   1_554  A
C266        H277   1.083       .  S
C267        C276   1.375       .  A
C267        C268   1.387       .  A
C268        S274   1.709       .  A
C268        C269   1.402       .  A
C269        C270   1.403   1_556  A
C269        H278   1.083       .  S
C270        C273   1.372       .  A
S271        C272   1.726       .  A
C272        C273   1.388       .  A
C273        H279   1.083   1_554  S
S274        C275   1.723       .  A
C275        C276   1.389       .  A
C276        H280   1.083   1_556  S
