geometry optimzed in LAMMPS
_audit_creation_date              2020-11-30 
_audit_creation_method            'lammps2cif' 
_symmetry_space_group_name_H-M    'P1' 
_symmetry_Int_Tables_number       1 
_symmetry_cell_setting            triclinic 
loop_ 
_symmetry_equiv_pos_as_xyz 
  x,y,z 
_cell_length_a                    26.93284639 
_cell_length_b                    26.793390637896355 
_cell_length_c                    26.845832347644773 
_cell_angle_alpha                 89.90760226149435 
_cell_angle_beta                  90.01022776394062 
_cell_angle_gamma                 90.05972733310693 
loop_ 
_atom_site_label 
_atom_site_type_symbol 
_atom_site_fract_x 
_atom_site_fract_y 
_atom_site_fract_z 
_atom_site_charge 
Fe1        Fe  0.58298408  0.86057342  0.17966912     1.65800
Fe2        Fe  0.67018263  0.92444473  0.11620878     1.73200
Fe3        Fe  0.62260278  0.81923858  0.06991901     1.54400
O4          O  0.59812734  0.76117888  0.11742940    -0.82100
O5          O  0.64187999  0.94298842  0.04774797    -0.80400
O6          O  0.61169792  0.79100953  0.19279655    -0.84600
O7          O  0.52478164  0.83119555  0.13557962    -0.79400
O8          O  0.69464531  0.80081559  0.08403410    -0.81200
O9          O  0.61931571  0.97490662  0.14876048    -0.83900
C10         C  0.51630874  0.83003432  0.08860591     0.96800
C11         C  0.60029486  0.75520482  0.16452347     1.04300
O12         O  0.62526411  0.86873167  0.12226820    -1.12900
O13         O  0.70132870  0.91088908  0.18428052    -0.75400
O14         O  0.63512528  0.88992641  0.22945991    -0.78800
O15         O  0.55014798  0.83802453  0.05654475    -0.79500
C16         C  0.67963442  0.90582476  0.22586268     0.95700
O17         O  0.55297882  0.92974524  0.17084597    -0.77500
O18         O  0.72588502  0.87834068  0.08372181    -0.82700
C19         C  0.64985372  0.91581291  0.01022295     0.98300
C20         C  0.73079809  0.83086999  0.07883546     1.04300
O21         O  0.64748951  0.86839474  0.01346842    -0.78300
C22         C  0.57514255  0.97125786  0.16612442     1.02600
Fe23       Fe  0.92947571  0.11793873  0.67499397     1.65800
Fe24       Fe  0.82021782  0.07671072  0.63449604     1.73200
Fe25       Fe  0.88077682  0.16564367  0.57095446     1.54400
O26         O  0.91492510  0.22135729  0.61538392    -0.82100
O27         O  0.83188148  0.04633328  0.56634558    -0.80400
O28         O  0.91799130  0.19072220  0.69309826    -0.84600
O29         O  0.98442684  0.14243619  0.62440178    -0.79400
O30         O  0.81385267  0.19667934  0.58756756    -0.81200
O31         O  0.86479030  0.01867746  0.66552869    -0.83900
C32         C  0.98611766  0.14561625  0.57702524     0.96800
C33         C  0.92382199  0.22613101  0.66208450     1.04300
O34         O  0.87641417  0.12057919  0.62666960    -1.12900
O35         O  0.80612313  0.10581479  0.70336000    -0.75400
O36         O  0.88170988  0.09396449  0.73357468    -0.80400
O37         O  0.94823431  0.13701421  0.55068469    -0.79500
C38         C  0.83453735  0.09524691  0.73929795     0.95700
O39         O  0.94258604  0.04543838  0.65604928    -0.77500
O40         O  0.76941060  0.12845450  0.60325637    -0.82700
C41         C  0.83309559  0.06917312  0.52504060     0.98300
C42         C  0.77258691  0.17412086  0.58947973     1.04300
O43         O  0.84676545  0.11480817  0.52137387    -0.78300
C44         C  0.91182017  0.01095847  0.66578329     1.02600
Fe45       Fe  0.32171866  0.42522457  0.37392674     1.65800
Fe46       Fe  0.42677966  0.37828983  0.32898275     1.73200
Fe47       Fe  0.36432522  0.31735618  0.41875276     1.54400
O48         O  0.33592983  0.36465938  0.47575741    -0.82100
O49         O  0.41271743  0.30979688  0.29958486    -0.80400
O50         O  0.34040468  0.44245924  0.44542210    -0.84600
O51         O  0.26407765  0.37868312  0.40119184    -0.79400
O52         O  0.43357860  0.32730145  0.44783625    -0.81200
O53         O  0.38102718  0.40914203  0.27214133    -0.83900
C54         C  0.25861413  0.33139052  0.40162400     0.96800
C55         C  0.33422850  0.41227291  0.48142701     1.04300
O56         O  0.37145808  0.37316601  0.37402296    -1.12900
O57         O  0.44475893  0.44719856  0.35624476    -0.75400
O58         O  0.37068286  0.48098952  0.34674755    -0.78800
O59         O  0.29459800  0.30281839  0.39197538    -0.79500
C60         C  0.41794504  0.48448714  0.34632604     0.95700
O61         O  0.30361438  0.40710180  0.30235992    -0.77500
O62         O  0.47760342  0.34709599  0.38020505    -0.82700
C63         C  0.40797955  0.26831351  0.32175770     0.98300
C64         C  0.47464080  0.33133177  0.42512364     1.04300
O65         O  0.39304085  0.26531326  0.36695914    -0.78300
C66         C  0.33377526  0.41197488  0.26631828     1.02600
Fe67       Fe  0.17468651  0.57126855  0.87597249     1.65800
Fe68       Fe  0.08106782  0.63156311  0.82022987     1.73200
Fe69       Fe  0.12639339  0.67342133  0.92736614     1.54400
O70         O  0.15235085  0.62233647  0.98101225    -0.82100
O71         O  0.10706685  0.70184400  0.80439531    -0.80400
O72         O  0.14901591  0.54826694  0.94429904    -0.84600
O73         O  0.22961739  0.61602776  0.91031424    -0.79400
O74         O  0.05465313  0.65440668  0.94404354    -0.81200
O75         O  0.13063981  0.60102387  0.76785147    -0.83900
C76         C  0.23408588  0.66316374  0.91676263     0.96800
C77         C  0.15571169  0.57484595  0.98266973     1.04300
O78         O  0.12736504  0.62512265  0.87441595    -1.12900
O79         O  0.05377029  0.56188306  0.83371894    -0.75400
O80         O  0.12526626  0.52087228  0.84132436    -0.78800
O81         O  0.19790713  0.69292968  0.91118562    -0.79500
C82         C  0.07910926  0.52219197  0.83002408     0.95700
O83         O  0.20250518  0.59167187  0.80781585    -0.77500
O84         O  0.02511521  0.66155759  0.86677066    -0.82700
C85         C  0.09856950  0.73758846  0.83399742     0.98300
C86         C  0.01926285  0.66309502  0.91407698     1.04300
O87         O  0.10047484  0.73152829  0.88114903    -0.78300
C88         C  0.17684603  0.59036843  0.76829628     1.02600
C89         C  0.17552030  0.55057483  0.02790508    -0.01700
C90         C  0.15989759  0.50287953  0.04252854    -0.09700
C91         C  0.18524847  0.47675224  0.07999271    -0.18500
C92         C  0.22870767  0.49673735  0.10211526     0.03900
C93         C  0.24486498  0.54460481  0.08589535     0.18000
C94         C  0.21704885  0.57172699  0.05099590    -0.20000
C95         C  0.28977039  0.56442235  0.10303570    -0.21200
C96         C  0.31896966  0.53787486  0.13641332    -0.19800
C97         C  0.30274698  0.49220019  0.15571198     0.19400
C98         C  0.25714487  0.47100090  0.13918672     0.01600
C99         C  0.24131588  0.42600907  0.16182667    -0.14500
C100        C  0.26815357  0.40488130  0.20119017    -0.12200
C101        C  0.31250822  0.42659787  0.21779014     0.01100
C102        C  0.33067769  0.46900191  0.19342595    -0.24400
H103        H  0.12849694  0.48542762  0.02428273     0.09100
H104        H  0.17137691  0.44013402  0.08922008     0.12700
H105        H  0.22976537  0.60824008  0.03916655     0.11400
H106        H  0.30286596  0.60035895  0.08984150     0.12600
H107        H  0.35395138  0.55378095  0.14812382     0.11600
H108        H  0.20694873  0.40793463  0.15188513     0.08700
H109        H  0.25323170  0.37238166  0.22005293     0.12000
H110        H  0.36448050  0.48644388  0.20679427     0.13800
C111        C  0.20007329  0.56919335  0.72343515    -0.01700
C112        C  0.24571024  0.58686390  0.70587656    -0.09700
C113        C  0.27084235  0.56170472  0.66777373    -0.18500
C114        C  0.25180304  0.51673729  0.64755079     0.03900
C115        C  0.20624313  0.49826110  0.66703344     0.18000
C116        C  0.18031621  0.52522227  0.70349207    -0.20000
C117        C  0.18750057  0.45221895  0.65116369    -0.21200
C118        C  0.21284129  0.42411065  0.61593874    -0.19800
C119        C  0.25650895  0.44219404  0.59419665     0.19400
C120        C  0.27644599  0.48903847  0.60928544     0.01600
C121        C  0.31920102  0.50672894  0.58425883    -0.14500
C122        C  0.33981175  0.48003279  0.54464489    -0.12200
C123        C  0.31968611  0.43418327  0.52971456     0.01100
C124        C  0.27905050  0.41468008  0.55577646    -0.24400
H125        H  0.26224362  0.61991704  0.72214824     0.09100
H126        H  0.30590459  0.57730125  0.65622747     0.12700
H127        H  0.14595576  0.51038357  0.71861849     0.11400
H128        H  0.15324422  0.43753789  0.66655327     0.12600
H129        H  0.19758210  0.38841589  0.60484818     0.11600
H130        H  0.33605186  0.54219811  0.59278041     0.08700
H131        H  0.37075337  0.49612628  0.52440462     0.12000
H132        H  0.26257509  0.37983352  0.54357225     0.13800
C133        C  0.72817878  0.20175179  0.57127709    -0.01700
C134        C  0.73483047  0.24607245  0.54391304    -0.09700
C135        C  0.69491513  0.27014045  0.52110431    -0.18500
C136        C  0.64628364  0.25103766  0.52517755     0.03900
C137        C  0.63908846  0.20770008  0.55519252     0.18000
C138        C  0.67989814  0.18309791  0.57717624    -0.20000
C139        C  0.59119842  0.18892693  0.56270257    -0.21200
C140        C  0.55038711  0.21198596  0.54086396    -0.19800
C141        C  0.55653592  0.25340470  0.50955172     0.19400
C142        C  0.60458152  0.27323708  0.50054115     0.01600
C143        C  0.60875078  0.31334064  0.46614352    -0.14500
C144        C  0.56687437  0.33256670  0.44166328    -0.12200
C145        C  0.51955220  0.31346938  0.45171179     0.01100
C146        C  0.51481648  0.27424371  0.48617528    -0.24400
H147        H  0.77154721  0.26174854  0.53866265     0.09100
H148        H  0.70330737  0.30372101  0.50060264     0.12700
H149        H  0.67407531  0.14919826  0.59850188     0.11400
H150        H  0.58521767  0.15624520  0.58578277     0.12600
H151        H  0.51377461  0.19657943  0.54763910     0.11600
H152        H  0.64400979  0.32965174  0.45631465     0.08700
H153        H  0.57150059  0.36250785  0.41489883     0.12000
H154        H  0.47845566  0.25837758  0.49342788     0.13800
C155        C  0.03003368  0.16752605  0.55223812    -0.01700
C156        C  0.04621494  0.14974165  0.50601887    -0.09700
C157        C  0.08180759  0.17602214  0.47837157    -0.18500
C158        C  0.10098094  0.22224388  0.49535819     0.03900
C159        C  0.08319015  0.24073212  0.54165792     0.18000
C160        C  0.04926783  0.21271190  0.57011690    -0.20000
C161        C  0.09807147  0.28784922  0.55854458    -0.21200
C162        C  0.13072214  0.31691712  0.53067973    -0.19800
C163        C  0.15090664  0.29889112  0.48615703     0.19400
C164        C  0.13661244  0.25110148  0.46797105     0.01600
C165        C  0.15985302  0.23369639  0.42406801    -0.14500
C166        C  0.19725653  0.26145705  0.40074425    -0.12200
C167        C  0.21175620  0.30814347  0.41919673     0.01100
C168        C  0.18709988  0.32741374  0.46096429    -0.24400
H169        H  0.03049974  0.11580177  0.49077745     0.09100
H170        H  0.09214320  0.16020189  0.44298427     0.12700
H171        H  0.03522608  0.22776687  0.60485031     0.11400
H172        H  0.08394419  0.30257502  0.59335967     0.12600
H173        H  0.14112406  0.35335420  0.54462512     0.11600
H174        H  0.15171348  0.19766247  0.40825989     0.08700
H175        H  0.21625165  0.24550896  0.36896655     0.12000
H176        H  0.19884065  0.36298612  0.47618241     0.13800
C177        C  0.05462656  0.47785390  0.80778318    -0.01700
C178        C  0.00682743  0.48246202  0.78735714    -0.09700
C179        C  0.98520776  0.44353361  0.76063282    -0.18500
C180        C  0.01047136  0.39797808  0.75378866     0.03900
C181        C  0.05803552  0.39250929  0.77630305     0.18000
C182        C  0.07993039  0.43250144  0.80223020    -0.20000
C183        C  0.08326475  0.34700866  0.77310105    -0.21200
C184        C  0.06148513  0.30629155  0.74958119    -0.19800
C185        C  0.01483535  0.31068918  0.72695927     0.19400
C186        C  0.98954806  0.35714107  0.72678351     0.01600
C187        C  0.94441309  0.36048936  0.69969226    -0.14500
C188        C  0.92366999  0.31843386  0.67675181    -0.12200
C189        C  0.94691388  0.27209939  0.68091541     0.01100
C190        C  0.99291257  0.26864856  0.70504311    -0.24400
H191        H  0.98618611  0.51694400  0.79090925     0.09100
H192        H  0.94834926  0.44997133  0.74638210     0.12700
H193        H  0.11682695  0.42833703  0.81784059     0.11400
H194        H  0.11952315  0.34249065  0.79003167     0.12600
H195        H  0.08128013  0.27109595  0.74905636     0.11600
H196        H  0.92444058  0.39507848  0.69549684     0.08700
H197        H  0.88862666  0.32175407  0.65722350     0.12000
H198        H  0.01158559  0.23282212  0.70690408     0.13800
C199        C  0.93277504  0.96302629  0.68341697    -0.01700
C200        C  0.91266369  0.93933329  0.72533587    -0.09700
C201        C  0.94039101  0.90403359  0.75190345    -0.18500
C202        C  0.98836946  0.88992453  0.73580478     0.03900
C203        C  0.00553263  0.90894671  0.68953675     0.18000
C204        C  0.97850039  0.94630257  0.66468559    -0.20000
C205        C  0.05001337  0.89127698  0.66906749    -0.21200
C206        C  0.07739351  0.85449224  0.69343129    -0.19800
C207        C  0.06282501  0.83721836  0.74048105     0.19400
C208        C  0.01947623  0.85680982  0.76338918     0.01600
C209        C  0.00994112  0.84361621  0.81342333    -0.14500
C210        C  0.03985946  0.80892610  0.83812608    -0.12200
C211        C  0.07841982  0.78449795  0.81304716     0.01100
C212        C  0.09076018  0.79998155  0.76464584    -0.24400
H213        H  0.87667347  0.95026283  0.73936209     0.09100
H214        H  0.92350173  0.88806324  0.78474913     0.12700
H215        H  0.99378676  0.96360383  0.63150182     0.11400
H216        H  0.06312785  0.90520375  0.63349854     0.12600
H217        H  0.11077421  0.84033798  0.67592160     0.11600
H218        H  0.97990405  0.86006877  0.83432805     0.08700
H219        H  0.03085615  0.79897417  0.87614272     0.12000
H220        H  0.12140801  0.78222241  0.74541622     0.13800
C221        C  0.70622724  0.92277744  0.27101989    -0.01700
C222        C  0.69002059  0.90914429  0.31864127    -0.09700
C223        C  0.71193367  0.92989380  0.36102827    -0.18500
C224        C  0.75026897  0.96597651  0.35699708     0.03900
C225        C  0.76627580  0.97985289  0.30855456     0.18000
C226        C  0.74504794  0.95752089  0.26642415    -0.20000
C227        C  0.80224014  0.01713914  0.30228290    -0.21200
C228        C  0.82197902  0.04191997  0.34322787    -0.19800
C229        C  0.80732877  0.02901261  0.39153349     0.19400
C230        C  0.77224941  0.98987270  0.39910318     0.01600
C231        C  0.76061553  0.97640694  0.44851895    -0.14500
C232        C  0.78157613  0.00168413  0.48854462    -0.12200
C233        C  0.81454097  0.04161626  0.48110043     0.01100
C234        C  0.82743091  0.05506404  0.43238833    -0.24400
H235        H  0.65973305  0.88289174  0.32316536     0.09100
H236        H  0.69684899  0.91812948  0.39631633     0.12700
H237        H  0.75722591  0.96923917  0.22971757     0.11400
H238        H  0.81440638  0.02800079  0.26533704     0.12600
H239        H  0.84897819  0.07131016  0.33706012     0.11600
H240        H  0.73569293  0.94625381  0.45759666     0.08700
H241        H  0.77086170  0.99040713  0.52580051     0.12000
H242        H  0.85328635  0.08551731  0.42629885     0.13800
C243        C  0.81101801  0.07650740  0.78561852    -0.01700
C244        C  0.76629284  0.09705805  0.80263163    -0.09700
C245        C  0.73757588  0.07243891  0.83865258    -0.18500
C246        C  0.75156751  0.02493639  0.85710356     0.03900
C247        C  0.79686401  0.00423501  0.83937362     0.18000
C248        C  0.82694165  0.03104538  0.80579452    -0.20000
C249        C  0.81080289  0.95590241  0.85341265    -0.21200
C250        C  0.78076957  0.92760261  0.88475250    -0.19800
C251        C  0.73721369  0.94763236  0.90484255     0.19400
C252        C  0.72205346  0.99677632  0.89169538     0.01600
C253        C  0.67873540  0.01580667  0.91470855    -0.14500
C254        C  0.65331799  0.98819970  0.95105637    -0.12200
C255        C  0.66893157  0.94009599  0.96434628     0.01100
C256        C  0.70990582  0.91943886  0.93968891    -0.24400
H257        H  0.75270096  0.13165704  0.78678386     0.09100
H258        H  0.70340218  0.09030932  0.84944552     0.12700
H259        H  0.86114338  0.01472724  0.79240006     0.11400
H260        H  0.84471966  0.93944441  0.83922929     0.12600
H261        H  0.79205559  0.88995466  0.89397348     0.11600
H262        H  0.66502543  0.05283924  0.90718658     0.08700
H263        H  0.62218341  0.00519600  0.97010365     0.12000
H264        H  0.72292789  0.88269845  0.95051297     0.13800
C265        C  0.58155158  0.70882870  0.18790960    -0.01700
C266        C  0.60130681  0.69165025  0.23308398    -0.09700
C267        C  0.57649690  0.65519868  0.26116333    -0.18500
C268        C  0.52952033  0.63678937  0.24611181     0.03900
C269        C  0.50964116  0.65488371  0.20044671     0.18000
C270        C  0.53689158  0.68838503  0.17079666    -0.20000
C271        C  0.46154835  0.64158243  0.18586388    -0.21200
C272        C  0.43255810  0.61084256  0.21580636    -0.19800
C273        C  0.45183809  0.59012193  0.25955551     0.19400
C274        C  0.50092013  0.60215868  0.27508191     0.01600
C275        C  0.51943101  0.57809453  0.31819210    -0.14500
C276        C  0.49114466  0.54208532  0.34329574    -0.12200
C277        C  0.44293266  0.53011628  0.32751194     0.01100
C278        C  0.42293791  0.55571155  0.28664645    -0.24400
H279        H  0.63537210  0.70762902  0.24746735     0.09100
H280        H  0.59357403  0.64427149  0.29582156     0.12700
H281        H  0.52135127  0.70172113  0.13606903     0.11400
H282        H  0.44570544  0.65616715  0.15169857     0.12600
H283        H  0.39499645  0.60255058  0.20426961     0.11600
H284        H  0.55653964  0.58445919  0.33185688     0.08700
H285        H  0.50769651  0.52222086  0.37430201     0.12000
H286        H  0.38613127  0.54593956  0.27349897     0.13800
C287        C  0.42437950  0.22314071  0.29402342    -0.01700
C288        C  0.44791838  0.22901663  0.24759525    -0.09700
C289        C  0.47110713  0.18906521  0.22396105    -0.18500
C290        C  0.47137591  0.14116254  0.24569611     0.03900
C291        C  0.44436358  0.13427432  0.29083048     0.18000
C292        C  0.42171382  0.17517100  0.31481418    -0.20000
C293        C  0.44096715  0.08674294  0.31219148    -0.21200
C294        C  0.46419379  0.04609096  0.29002537    -0.19800
C295        C  0.49276046  0.05220653  0.24681988     0.19400
C296        C  0.49753762  0.09993317  0.22436131     0.01600
C297        C  0.52949204  0.10445676  0.18252491    -0.14500
C298        C  0.55510315  0.06307647  0.16361041    -0.12200
C299        C  0.54870821  0.01587780  0.18493210     0.01100
C300        C  0.51735419  0.01085951  0.22647561    -0.24400
H301        H  0.45016165  0.26530320  0.22989909     0.09100
H302        H  0.48866541  0.19690726  0.18872759     0.12700
H303        H  0.40316402  0.16981848  0.35026180     0.11400
H304        H  0.42017003  0.08093880  0.34627475     0.12600
H305        H  0.46065134  0.00973375  0.30743263     0.11600
H306        H  0.53638338  0.13969334  0.16437667     0.08700
H307        H  0.57955492  0.06789712  0.13193215     0.12000
H308        H  0.51316544  0.97462009  0.24406558     0.13800
C309        C  0.97216512  0.68131645  0.93536996    -0.01700
C310        C  0.95300428  0.66016980  0.97902179    -0.09700
C311        C  0.91405962  0.68317324  0.00468086    -0.18500
C312        C  0.89474103  0.72965168  0.98864997     0.03900
C313        C  0.91512806  0.75124606  0.94476850     0.18000
C314        C  0.95170531  0.72585248  0.91746278    -0.20000
C315        C  0.90058426  0.79906234  0.92964580    -0.21200
C316        C  0.86616978  0.82603122  0.95723918    -0.19800
C317        C  0.84328019  0.80483846  0.99901777     0.19400
C318        C  0.85677876  0.75601424  0.01500577     0.01600
C319        C  0.83080538  0.73530308  0.05586636    -0.14500
C320        C  0.79190094  0.76120365  0.07848060    -0.12200
C321        C  0.77843986  0.80907600  0.06229280     0.01100
C322        C  0.80542568  0.83137129  0.02359814    -0.24400
H323        H  0.96903433  0.62622391  0.99395622     0.09100
H324        H  0.90162446  0.66498195  0.03827413     0.12700
H325        H  0.96675425  0.74252692  0.88396813     0.11400
H326        H  0.91681457  0.81621802  0.89687270     0.12600
H327        H  0.85677119  0.86343427  0.94528678     0.11600
H328        H  0.83804070  0.69820541  0.06962088     0.08700
H329        H  0.77103650  0.74298512  0.10785618     0.12000
H330        H  0.79446087  0.86790684  0.01011604     0.13800
C331        C  0.28066159  0.68420113  0.93654683    -0.01700
C332        C  0.30621348  0.65928554  0.97456958    -0.09700
C333        C  0.34225817  0.68412982  0.00263148    -0.18500
C334        C  0.35506802  0.73419983  0.99193687     0.03900
C335        C  0.33300714  0.75724762  0.94973305     0.18000
C336        C  0.29504022  0.73279440  0.92353842    -0.20000
C337        C  0.34878490  0.80462072  0.93427442    -0.21200
C338        C  0.38724682  0.82886836  0.95906487    -0.19800
C339        C  0.40827818  0.80785237  0.00191640     0.19400
C340        C  0.39023637  0.76163492  0.02059898     0.01600
C341        C  0.40757391  0.74531049  0.06752689    -0.14500
C342        C  0.44498863  0.77141590  0.09238485    -0.12200
C343        C  0.46768525  0.81284284  0.07013850     0.01100
C344        C  0.44799776  0.83202533  0.02575592    -0.24400
H345        H  0.29648385  0.62132893  0.98438806     0.09100
H346        H  0.36007078  0.66325050  0.03203929     0.12700
H347        H  0.27599387  0.75187525  0.89343809     0.11400
H348        H  0.33233775  0.82232339  0.90192042     0.12600
H349        H  0.40012833  0.86456903  0.94508009     0.11600
H350        H  0.39253288  0.71272574  0.08582220     0.08700
H351        H  0.45815935  0.75742795  0.12778433     0.12000
H352        H  0.46448195  0.86505222  0.00917426     0.13800
loop_ 
_geom_bond_atom_site_label_1 
_geom_bond_atom_site_label_2 
_geom_bond_distance 
_geom_bond_site_symmetry_2 
_ccdc_geom_bond_type 
Fe1          O17   2.036       .  S
Fe1           O7   2.116       .  S
Fe1          O14   2.092       .  S
Fe1           O6   2.049       .  S
Fe1          O12   1.928       .  S
Fe2           O5   2.050       .  S
Fe2           O9   2.116       .  S
Fe2          O13   2.043       .  S
Fe2          O18   2.132       .  S
Fe2          O12   1.927       .  S
Fe3          O21   2.115       .  S
Fe3           O8   2.038       .  S
Fe3          O15   2.047       .  S
Fe3           O4   2.115       .  S
Fe3          O12   1.935       .  S
O4           C11   1.275       .  A
O5           C19   1.262       .  A
O6           C11   1.262       .  A
O7           C10   1.282       .  A
O8           C20   1.270       .  A
O9           C22   1.281       .  A
C10          O15   1.271       .  A
C10         C343   1.474       .  S
C11         C265   1.480       .  S
O13          C16   1.267       .  A
O14          C16   1.275       .  A
C16         C221   1.480       .  S
O17          C22   1.268       .  A
O18          C20   1.286       .  A
C19          O21   1.275       .  A
C19         C255   1.484   1_554  S
C20         C321   1.479       .  S
C22         C299   1.482   1_565  S
Fe23         O39   2.040       .  S
Fe23         O29   2.112       .  S
Fe23         O36   2.130       .  S
Fe23         O28   2.035       .  S
Fe23         O34   1.931       .  S
Fe24         O27   2.028       .  S
Fe24         O31   2.134       .  S
Fe24         O35   2.043       .  S
Fe24         O40   2.121       .  S
Fe24         O34   1.927       .  S
Fe25         O43   2.114       .  S
Fe25         O30   2.036       .  S
Fe25         O37   2.047       .  S
Fe25         O26   2.121       .  S
Fe25         O34   1.924       .  S
O26          C33   1.283       .  A
O27          C41   1.266       .  A
O28          C33   1.271       .  A
O29          C32   1.275       .  A
O30          C42   1.266       .  A
O31          C44   1.284       .  A
C32          O37   1.263       .  A
C32         C155   1.478   1_655  S
C33         C189   1.470       .  S
O35          C38   1.263       .  A
O36          C38   1.280       .  A
C38         C243   1.482       .  S
O39          C44   1.267       .  A
O40          C42   1.280       .  A
C41          O43   1.280       .  A
C41         C233   1.479       .  S
C42         C133   1.489       .  S
C44         C199   1.480   1_545  S
Fe45         O61   2.041       .  S
Fe45         O51   2.120       .  S
Fe45         O58   2.121       .  S
Fe45         O50   2.038       .  S
Fe45         O56   1.935       .  S
Fe46         O49   2.034       .  S
Fe46         O53   2.128       .  S
Fe46         O57   2.045       .  S
Fe46         O62   2.112       .  S
Fe46         O56   1.924       .  S
Fe47         O65   2.118       .  S
Fe47         O52   2.039       .  S
Fe47         O59   2.048       .  S
Fe47         O48   2.131       .  S
Fe47         O56   1.926       .  S
O48          C55   1.286       .  A
O49          C63   1.266       .  A
O50          C55   1.270       .  A
O51          C54   1.276       .  A
O52          C64   1.267       .  A
O53          C66   1.284       .  A
C54          O59   1.263       .  A
C54         C167   1.484       .  S
C55         C123   1.477       .  S
O57          C60   1.261       .  A
O58          C60   1.276       .  A
C60         C277   1.483       .  S
O61          C66   1.270       .  A
O62          C64   1.280       .  A
C63          O65   1.281       .  A
C63         C287   1.489       .  S
C64         C145   1.484       .  S
C66         C101   1.476       .  S
Fe67         O83   2.050       .  S
Fe67         O73   2.116       .  S
Fe67         O80   2.112       .  S
Fe67         O72   2.054       .  S
Fe67         O78   1.927       .  S
Fe68         O71   2.052       .  S
Fe68         O75   2.106       .  S
Fe68         O79   2.038       .  S
Fe68         O84   2.118       .  S
Fe68         O78   1.923       .  S
Fe69         O87   2.109       .  S
Fe69         O74   2.047       .  S
Fe69         O81   2.042       .  S
Fe69         O70   2.105       .  S
Fe69         O78   1.924       .  S
O70          C77   1.276       .  A
O71          C85   1.267       .  A
O72          C77   1.266       .  A
O73          C76   1.281       .  A
O74          C86   1.269       .  A
O75          C88   1.277       .  A
C76          O81   1.269       .  A
C76         C331   1.474       .  S
C77          C89   1.477   1_556  S
O79          C82   1.268       .  A
O80          C82   1.280       .  A
C82         C177   1.484       .  S
O83          C88   1.267       .  A
O84          C86   1.280       .  A
C85          O87   1.277       .  A
C85         C211   1.480       .  S
C86         C309   1.475   1_455  S
C88         C111   1.472       .  S
C89          C90   1.401       .  A
C89          C94   1.399       .  A
C90          C91   1.402       .  A
C90         H103   1.083       .  S
C91          C92   1.417       .  A
C91         H104   1.078       .  S
C92          C98   1.432       .  A
C92          C93   1.422       .  A
C93          C95   1.398       .  A
C93          C94   1.402       .  A
C94         H105   1.083       .  S
C95          C96   1.388       .  A
C95         H106   1.084       .  S
C96          C97   1.398       .  A
C96         H107   1.081       .  S
C97          C98   1.424       .  A
C97         C102   1.406       .  A
C98          C99   1.415       .  A
C99         C100   1.399       .  A
C99         H108   1.078       .  S
C100        C101   1.401       .  A
C100        H109   1.084       .  S
C101        C102   1.398       .  A
C102        H110   1.084       .  S
C111        C112   1.398       .  A
C111        C116   1.399       .  A
C112        C113   1.401       .  A
C112        H125   1.083       .  S
C113        C114   1.418       .  A
C113        H126   1.078       .  S
C114        C120   1.432       .  A
C114        C115   1.422       .  A
C115        C117   1.399       .  A
C115        C116   1.404       .  A
C116        H127   1.085       .  S
C117        C118   1.390       .  A
C117        H128   1.084       .  S
C118        C119   1.399       .  A
C118        H129   1.083       .  S
C119        C120   1.424       .  A
C119        C124   1.407       .  A
C120        C121   1.414       .  A
C121        C122   1.398       .  A
C121        H130   1.078       .  S
C122        C123   1.401       .  A
C122        H131   1.084       .  S
C123        C124   1.399       .  A
C124        H132   1.084       .  S
C133        C134   1.407       .  A
C133        C138   1.402       .  A
C134        C135   1.395       .  A
C134        H147   1.083       .  S
C135        C136   1.410       .  A
C135        H148   1.078       .  S
C136        C142   1.433       .  A
C136        C137   1.425       .  A
C137        C139   1.398       .  A
C137        C138   1.411       .  A
C138        H149   1.084       .  S
C139        C140   1.391       .  A
C139        H150   1.084       .  S
C140        C141   1.401       .  A
C140        H151   1.084       .  S
C141        C142   1.419       .  A
C141        C146   1.403       .  A
C142        C143   1.420       .  A
C143        C144   1.403       .  A
C143        H152   1.078       .  S
C144        C145   1.399       .  A
C144        H153   1.083       .  S
C145        C146   1.405       .  A
C146        H154   1.085       .  S
C155        C156   1.400       .  A
C155        C160   1.402       .  A
C156        C157   1.401       .  A
C156        H169   1.083       .  S
C157        C158   1.417       .  A
C157        H170   1.078       .  S
C158        C164   1.434       .  A
C158        C159   1.422       .  A
C159        C161   1.400       .  A
C159        C160   1.407       .  A
C160        H171   1.085       .  S
C161        C162   1.392       .  A
C161        H172   1.084       .  S
C162        C163   1.400       .  A
C162        H173   1.083       .  S
C163        C164   1.424       .  A
C163        C168   1.410       .  A
C164        C165   1.415       .  A
C165        C166   1.399       .  A
C165        H174   1.078       .  S
C166        C167   1.401       .  A
C166        H175   1.083       .  S
C167        C168   1.403       .  A
C168        H176   1.084       .  S
C177        C178   1.405       .  A
C177        C182   1.402       .  A
C178        C179   1.394   1_455  A
C178        H191   1.083   1_455  S
C179        C180   1.410   1_655  A
C179        H192   1.078       .  S
C180        C186   1.429   1_455  A
C180        C181   1.424       .  A
C181        C183   1.399       .  A
C181        C182   1.408       .  A
C182        H193   1.084       .  S
C183        C184   1.391       .  A
C183        H194   1.084       .  S
C184        C185   1.400       .  A
C184        H195   1.084       .  S
C185        C186   1.419   1_455  A
C185        C190   1.402   1_455  A
C186        C187   1.419       .  A
C187        C188   1.401       .  A
C187        H196   1.078       .  S
C188        C189   1.395       .  A
C188        H197   1.083       .  S
C189        C190   1.401       .  A
C190        H198   1.085   1_655  S
C199        C200   1.400       .  A
C199        C204   1.404       .  A
C200        C201   1.400       .  A
C200        H213   1.081       .  S
C201        C202   1.415       .  A
C201        H214   1.080       .  S
C202        C208   1.427   1_655  A
C202        C203   1.419   1_655  A
C203        C205   1.401       .  A
C203        C204   1.406   1_455  A
C204        H215   1.085       .  S
C205        C206   1.394       .  A
C205        H216   1.084       .  S
C206        C207   1.401       .  A
C206        H217   1.084       .  S
C207        C208   1.421       .  A
C207        C212   1.408       .  A
C208        C209   1.412       .  A
C209        C210   1.397       .  A
C209        H218   1.080   1_455  S
C210        C211   1.401       .  A
C210        H219   1.082       .  S
C211        C212   1.403       .  A
C212        H220   1.084       .  S
C221        C222   1.399       .  A
C221        C226   1.404       .  A
C222        C223   1.398       .  A
C222        H235   1.083       .  S
C223        C224   1.418       .  A
C223        H236   1.077       .  S
C224        C230   1.428       .  A
C224        C225   1.419       .  A
C225        C227   1.401   1_565  A
C225        C226   1.402       .  A
C226        H237   1.084       .  S
C227        C228   1.390       .  A
C227        H238   1.084       .  S
C228        C229   1.398       .  A
C228        H239   1.084       .  S
C229        C230   1.425   1_545  A
C229        C234   1.409       .  A
C230        C231   1.409       .  A
C231        C232   1.390   1_565  A
C231        H240   1.077       .  S
C232        C233   1.404       .  A
C232        H241   1.083   1_545  S
C233        C234   1.400       .  A
C234        H242   1.084       .  S
C243        C244   1.402       .  A
C243        C248   1.400       .  A
C244        C245   1.402       .  A
C244        H257   1.083       .  S
C245        C246   1.416       .  A
C245        H258   1.078       .  S
C246        C252   1.435   1_545  A
C246        C247   1.423       .  A
C247        C249   1.400   1_545  A
C247        C248   1.408       .  A
C248        H259   1.082       .  S
C249        C250   1.391       .  A
C249        H260   1.084       .  S
C250        C251   1.399       .  A
C250        H261   1.082       .  S
C251        C252   1.423       .  A
C251        C256   1.408       .  A
C252        C253   1.416   1_565  A
C253        C254   1.402   1_545  A
C253        H262   1.078       .  S
C254        C255   1.402       .  A
C254        H263   1.083   1_565  S
C255        C256   1.402       .  A
C256        H264   1.085       .  S
C265        C266   1.401       .  A
C265        C270   1.399       .  A
C266        C267   1.402       .  A
C266        H279   1.083       .  S
C267        C268   1.417       .  A
C267        H280   1.078       .  S
C268        C274   1.434       .  A
C268        C269   1.422       .  A
C269        C271   1.399       .  A
C269        C270   1.405       .  A
C270        H281   1.082       .  S
C271        C272   1.390       .  A
C271        H282   1.084       .  S
C272        C273   1.398       .  A
C272        H283   1.081       .  S
C273        C274   1.423       .  A
C273        C278   1.408       .  A
C274        C275   1.415       .  A
C275        C276   1.401       .  A
C275        H284   1.078       .  S
C276        C277   1.403       .  A
C276        H285   1.083       .  S
C277        C278   1.401       .  A
C278        H286   1.084       .  S
C287        C288   1.407       .  A
C287        C292   1.402       .  A
C288        C289   1.394       .  A
C288        H301   1.083       .  S
C289        C290   1.409       .  A
C289        H302   1.078       .  S
C290        C296   1.431       .  A
C290        C291   1.425       .  A
C291        C293   1.399       .  A
C291        C292   1.411       .  A
C292        H303   1.084       .  S
C293        C294   1.391       .  A
C293        H304   1.084       .  S
C294        C295   1.401       .  A
C294        H305   1.084       .  S
C295        C296   1.419       .  A
C295        C300   1.403       .  A
C296        C297   1.420       .  A
C297        C298   1.402       .  A
C297        H306   1.078       .  S
C298        C299   1.398       .  A
C298        H307   1.083       .  S
C299        C300   1.405       .  A
C300        H308   1.085   1_545  S
C309        C310   1.399       .  A
C309        C314   1.399       .  A
C310        C311   1.399   1_556  A
C310        H323   1.083       .  S
C311        C312   1.416   1_554  A
C311        H324   1.078       .  S
C312        C318   1.431   1_556  A
C312        C313   1.422       .  A
C313        C315   1.400       .  A
C313        C314   1.405       .  A
C314        H325   1.082       .  S
C315        C316   1.390       .  A
C315        H326   1.084       .  S
C316        C317   1.399       .  A
C316        H327   1.082       .  S
C317        C318   1.424   1_556  A
C317        C322   1.408   1_556  A
C318        C319   1.414       .  A
C319        C320   1.397       .  A
C319        H328   1.078       .  S
C320        C321   1.402       .  A
C320        H329   1.084       .  S
C321        C322   1.401       .  A
C322        H330   1.084       .  S
C331        C332   1.400       .  A
C331        C336   1.402       .  A
C332        C333   1.398   1_556  A
C332        H345   1.082       .  S
C333        C334   1.414   1_554  A
C333        H346   1.080       .  S
C334        C340   1.425   1_556  A
C334        C335   1.420       .  A
C335        C337   1.400       .  A
C335        C336   1.403       .  A
C336        H347   1.085       .  S
C337        C338   1.392       .  A
C337        H348   1.084       .  S
C338        C339   1.400   1_556  A
C338        H349   1.084       .  S
C339        C340   1.421       .  A
C339        C344   1.405       .  A
C340        C341   1.412       .  A
C341        C342   1.396       .  A
C341        H350   1.080       .  S
C342        C343   1.400       .  A
C342        H351   1.081       .  S
C343        C344   1.401       .  A
C344        H352   1.085       .  S
