geometry optimzed in LAMMPS
_audit_creation_date              2020-11-30 
_audit_creation_method            'lammps2cif' 
_symmetry_space_group_name_H-M    'P1' 
_symmetry_Int_Tables_number       1 
_symmetry_cell_setting            triclinic 
loop_ 
_symmetry_equiv_pos_as_xyz 
  x,y,z 
_cell_length_a                    28.63033582 
_cell_length_b                    28.587033205774915 
_cell_length_c                    36.846770367575274 
_cell_angle_alpha                 90.4820480938119 
_cell_angle_beta                  89.62926486589618 
_cell_angle_gamma                 119.98100390378954 
loop_ 
_atom_site_label 
_atom_site_type_symbol 
_atom_site_fract_x 
_atom_site_fract_y 
_atom_site_fract_z 
_atom_site_charge 
C1          C  0.41867000  0.19601462  0.43175206     0.03800
C2          C  0.39298254  0.22703841  0.43670102    -0.12300
C3          C  0.34044063  0.20343335  0.45168621     0.01300
C4          C  0.31466138  0.14886758  0.46185871    -0.10800
C5          C  0.33905817  0.11724495  0.45637580     0.03800
C6          C  0.39137395  0.14146379  0.44212382    -0.10200
H7          H  0.41335282  0.26905428  0.42887006     0.09400
H8          H  0.27494695  0.13054082  0.47413471     0.07000
H9          H  0.40994022  0.11693140  0.43729465     0.06800
C10         C  0.31097742  0.31496182  0.48014746     0.03800
C11         C  0.33877184  0.28746368  0.47100227    -0.12300
C12         C  0.31154583  0.23458920  0.45721827     0.01300
C13         C  0.25550059  0.20981738  0.45129458    -0.10800
C14         C  0.22613378  0.23598472  0.46021635     0.03800
C15         C  0.25456514  0.28906507  0.47440260    -0.10200
H16         H  0.38165060  0.30654366  0.47629308     0.09400
H17         H  0.23452991  0.16963302  0.43956836     0.07000
H18         H  0.23259060  0.30959367  0.48130248     0.06800
C19         C  0.08098626  0.20171753  0.43786017     0.03800
C20         C  0.13760553  0.23160880  0.44287459    -0.12300
C21         C  0.16568504  0.20617310  0.45605767     0.01300
C22         C  0.13581644  0.15054434  0.46417769    -0.10800
C23         C  0.07969389  0.12008995  0.45859404     0.03800
C24         C  0.05280161  0.14648471  0.44636717    -0.10200
H25         H  0.15980072  0.27406771  0.43616803     0.09400
H26         H  0.15639861  0.13047689  0.47475977     0.07000
H27         H  0.00978996  0.12310826  0.44137030     0.06800
C28         C  0.08664908  0.87260240  0.41383223     0.03800
C29         C  0.14052910  0.89723066  0.42525641    -0.12300
C30         C  0.16421072  0.94638221  0.44415076     0.01300
C31         C  0.13317696  0.97024809  0.45264247    -0.10800
C32         C  0.07936893  0.94681691  0.44152627     0.03800
C33         C  0.05590341  0.89755069  0.42215290    -0.10200
H34         H  0.16463522  0.87879623  0.41847730     0.09400
H35         H  0.15099312  0.00717330  0.46859662     0.07000
H36         H  0.01415372  0.87896384  0.41392075     0.06800
C37         C  0.97115287  0.97382616  0.47964504     0.03800
C38         C  0.99814849  0.03092703  0.47742367    -0.12300
C39         C  0.05021292  0.05993393  0.46191656     0.01300
C40         C  0.07449380  0.03117690  0.44845071    -0.10800
C41         C  0.04898291  0.97477673  0.45112373     0.03800
C42         C  0.99716986  0.94648179  0.46617896    -0.10200
H43         H  0.97992720  0.05321810  0.48838933     0.09400
H44         H  0.11386858  0.05290538  0.43573009     0.07000
H45         H  0.97794755  0.90300859  0.46886215     0.06800
C46         C  0.29754885  0.97226390  0.48266170     0.03800
C47         C  0.24413951  0.94533250  0.47032157    -0.12300
C48         C  0.22165972  0.97395087  0.45469271     0.01300
C49         C  0.25361884  0.02980266  0.45018143    -0.10800
C50         C  0.30726351  0.05785710  0.46203511     0.03800
C51         C  0.32936769  0.02876422  0.47826618    -0.10200
H52         H  0.21923415  0.90216552  0.47434467     0.09400
H53         H  0.23664522  0.05149623  0.43675952     0.07000
H54         H  0.37079306  0.04996674  0.48746182     0.06800
Fe55       Fe  0.44692351  0.72629114  0.71374432     1.65800
Fe56       Fe  0.56567818  0.84515723  0.70590064     1.73200
Fe57       Fe  0.56501034  0.72618560  0.69513888     1.54400
O58         O  0.52351602  0.66957150  0.73507721    -0.81000
O59         O  0.60197468  0.85059306  0.65641180    -0.79300
O60         O  0.45177760  0.67565034  0.75233128    -0.83500
O61         O  0.43204528  0.67008537  0.67328219    -0.78300
O62         O  0.62466329  0.77038762  0.73328760    -0.80100
O63         O  0.50698474  0.85210315  0.67959896    -0.82800
C64         C  0.45905294  0.65609780  0.65304045     0.97900
C65         C  0.48232377  0.65525456  0.75511141     1.05400
O66         O  0.52578233  0.76566443  0.70492092    -1.11800
O67         O  0.53424902  0.84868078  0.75548767    -0.74300
O68         O  0.45065877  0.77808523  0.75534428    -0.77700
O69         O  0.50985627  0.67644441  0.65601415    -0.78400
C70         C  0.48715318  0.82260943  0.76871414     0.96800
O71         O  0.43273123  0.77146868  0.67569966    -0.76400
O72         O  0.63059085  0.85098907  0.73243554    -0.81600
C73         C  0.62205316  0.82407790  0.64207485     0.99500
C74         C  0.64752244  0.81996289  0.74228478     1.05400
O75         O  0.61277881  0.77855410  0.65410937    -0.77200
C76         C  0.45969242  0.82148082  0.66818504     1.03700
C77         C  0.06732774  0.18711899  0.97346809     0.03800
C78         C  0.04110674  0.13281090  0.96212744    -0.12300
C79         C  0.07022401  0.11053840  0.94630194     0.01300
C80         C  0.12576132  0.14349927  0.94040270    -0.10800
C81         C  0.15300323  0.19792742  0.95106133     0.03800
C82         C  0.12341102  0.21989633  0.96723761    -0.10200
H83         H  0.99849242  0.10688490  0.96769217     0.09400
H84         H  0.14812227  0.12620937  0.92788006     0.07000
H85         H  0.14435760  0.26191822  0.97543180     0.06800
C86         C  0.97474731  0.96544531  0.91581946     0.03800
C87         C  0.99648645  0.02153928  0.92116619    -0.12300
C88         C  0.04499693  0.05155502  0.94041479     0.01300
C89         C  0.07072120  0.02512120  0.95468283    -0.10800
C90         C  0.04958918  0.96968252  0.94951772     0.03800
C91         C  0.00130046  0.93997273  0.93048972    -0.10200
H92         H  0.97620218  0.04184037  0.91052196     0.09400
H93         H  0.10740322  0.04792057  0.97029020     0.07000
H94         H  0.98525828  0.89709475  0.92600257     0.06800
C95         C  0.08202574  0.87060847  0.99477832     0.03800
C96         C  0.05314057  0.89433745  0.98106390    -0.12300
C97         C  0.07955413  0.94376472  0.96298259     0.01300
C98         C  0.13536584  0.96958425  0.95826122    -0.10800
C99         C  0.16550977  0.94752414  0.97207502     0.03800
C100        C  0.13863477  0.89742637  0.99011952    -0.10200
H101        H  0.00989190  0.87478348  0.98514411     0.09400
H102        H  0.15546920  0.00696398  0.94312294     0.07000
H103        H  0.16197830  0.88071398  0.00127877     0.06800
C104        C  0.30433116  0.97963631  0.94005644     0.03800
C105        C  0.25056317  0.95064266  0.95195557    -0.12300
C106        C  0.22472910  0.97734608  0.96605069     0.01300
C107        C  0.25405390  0.03387178  0.96981062    -0.10800
C108        C  0.30805279  0.06405765  0.95843957     0.03800
C109        C  0.33329392  0.03655315  0.94374810    -0.10200
H110        H  0.22762534  0.90722394  0.94808430     0.09400
H111        H  0.23430749  0.05464250  0.98115221     0.07000
H112        H  0.37481641  0.05956848  0.93485614     0.06800
C113        C  0.41189116  0.21005654  0.98241298     0.03800
C114        C  0.38386933  0.23659196  0.97157253    -0.12300
C115        C  0.33258106  0.20797629  0.95547781     0.01300
C116        C  0.30980360  0.15194728  0.94986968    -0.10800
C117        C  0.33638516  0.12427549  0.96093423     0.03800
C118        C  0.38769112  0.15371211  0.97682226    -0.10200
H119        H  0.40127836  0.27943573  0.97691088     0.09400
H120        H  0.27060202  0.12934935  0.93714057     0.07000
H121        H  0.40683542  0.13186778  0.98661461     0.06800
C122        C  0.29218111  0.31018283  0.92210654     0.03800
C123        C  0.32412695  0.28666113  0.93075357    -0.12300
C124        C  0.30055193  0.23502876  0.94694071     0.01300
C125        C  0.24495602  0.20789527  0.95470368    -0.10800
C126        C  0.21257857  0.23028752  0.94600964     0.03800
C127        C  0.23669315  0.28162623  0.93035119    -0.10200
H128        H  0.36677899  0.30767261  0.92465735     0.09400
H129        H  0.22649143  0.16884793  0.96779503     0.07000
H130        H  0.21153476  0.29853187  0.92315209     0.06800
Fe131      Fe  0.82327926  0.33442981  0.21019720     1.65800
Fe132      Fe  0.81630446  0.44739621  0.19091713     1.73200
Fe133      Fe  0.93734974  0.45780464  0.20904358     1.54400
O134        O  0.93694844  0.42528018  0.25861367    -0.81000
O135        O  0.87312425  0.50196888  0.15458347    -0.79300
O136        O  0.87529340  0.33857319  0.25175933    -0.83500
O137        O  0.87270269  0.32757611  0.17137383    -0.78300
O138        O  0.93346860  0.51950464  0.23643895    -0.80100
O139        O  0.77837297  0.39510454  0.14819572    -0.82800
C140        C  0.92337153  0.35693223  0.16651000     0.97900
C141        C  0.91534291  0.37652564  0.26845954     1.05400
O142        O  0.85896557  0.41323994  0.20337538    -1.11800
O143        O  0.75439669  0.39850806  0.22595178    -0.74300
O144        O  0.77084702  0.33620204  0.24922235    -0.77700
O145        O  0.95151685  0.40234851  0.18211858    -0.78400
C146        C  0.74439948  0.36125877  0.24853947     0.96800
O147        O  0.76616796  0.31711199  0.16950035    -0.76400
O148        O  0.84888808  0.50288024  0.23257149    -0.81600
C149        C  0.92063833  0.51437981  0.14482753     0.99500
C150        C  0.89643803  0.52988283  0.24484558     1.05400
O151        O  0.94708753  0.49546488  0.16006380    -0.77200
C152        C  0.75568306  0.34397194  0.14686077     1.03700
C153        C  0.55052326  0.25627571  0.03026895     0.19400
C154        C  0.58081061  0.23119573  0.03837359    -0.18700
C155        C  0.62664625  0.25674766  0.06060680    -0.11000
C156        C  0.64348495  0.30837906  0.07528012     0.21700
C157        C  0.61422534  0.33405465  0.06630183    -0.20300
C158        C  0.56850475  0.30859773  0.04419147    -0.11100
C159        C  0.69099399  0.33743315  0.09987892    -0.15300
C160        C  0.71383399  0.31385608  0.11885370    -0.29200
C161        C  0.50060296  0.22615742  0.00765358    -0.03400
C162        C  0.46367820  0.24191473  0.00268239    -0.40000
H163        H  0.56862007  0.19126804  0.02775948     0.12800
H164        H  0.64870489  0.23598047  0.06595961     0.12400
H165        H  0.62648494  0.37405756  0.07680856     0.11900
H166        H  0.54799737  0.33064728  0.03824698     0.12100
H167        H  0.70545185  0.38009763  0.10458835     0.14900
H168        H  0.69850883  0.27077448  0.11638867     0.13600
H169        H  0.49379099  0.18872776  0.99526247     0.11300
H170        H  0.47053640  0.27970317  0.01431208     0.13300
C171        C  0.03348678  0.73506712  0.04505230     0.19400
C172        C  0.03752992  0.68865137  0.03907301    -0.18700
C173        C  0.00501404  0.64121514  0.05855655    -0.11000
C174        C  0.96822322  0.63963090  0.08478774     0.21700
C175        C  0.96443581  0.68611339  0.09077324    -0.20300
C176        C  0.99696427  0.73339039  0.07149398    -0.11100
C177        C  0.93405282  0.59120150  0.10724142    -0.15300
C178        C  0.94833219  0.55444616  0.11584029    -0.29200
C179        C  0.06780047  0.78486067  0.02372818    -0.03400
C180        C  0.05091391  0.81985035  0.01569197    -0.40000
H181        H  0.06537514  0.68888843  0.01893149     0.12800
H182        H  0.00842925  0.60590229  0.05270932     0.12400
H183        H  0.93692991  0.68622893  0.11106061     0.11900
H184        H  0.99395065  0.76880296  0.07787706     0.12100
H185        H  0.89907044  0.58912111  0.12056058     0.14900
H186        H  0.98544689  0.55822292  0.10511592     0.13600
H187        H  0.10592882  0.79111860  0.01310974     0.11300
H188        H  0.01042557  0.80980221  0.02378062     0.13300
C189        C  0.02207874  0.25940274  0.04314638     0.19400
C190        C  0.04480737  0.28567848  0.07607642    -0.18700
C191        C  0.01493376  0.29735062  0.10090727    -0.11000
C192        C  0.96157568  0.28402122  0.09312256     0.21700
C193        C  0.93860993  0.25758503  0.06021516    -0.20300
C194        C  0.96855782  0.24569611  0.03531585    -0.11100
C195        C  0.92934864  0.29744514  0.11875088    -0.15300
C196        C  0.95285154  0.33959403  0.14188413    -0.29200
C197        C  0.05554891  0.24639773  0.01844862    -0.03400
C198        C  0.03472452  0.20645737  0.99348039    -0.40000
H199        H  0.08569216  0.29635675  0.08299889     0.12800
H200        H  0.03369964  0.31602599  0.12642882     0.12400
H201        H  0.89765012  0.24686451  0.05350145     0.11900
H202        H  0.94977092  0.22647219  0.00992880     0.12100
H203        H  0.88562813  0.27423931  0.11713855     0.14900
H204        H  0.99637380  0.36526163  0.14159587     0.13600
H205        H  0.09857054  0.26704927  0.02368684     0.11300
H206        H  0.99130368  0.18269734  0.99038322     0.13300
C207        C  0.37646534  0.44142179  0.86494500     0.19400
C208        C  0.43126892  0.47897356  0.85923030    -0.18700
C209        C  0.44709285  0.52569231  0.83860070    -0.11000
C210        C  0.40826972  0.53563327  0.82258644     0.21700
C211        C  0.35353216  0.49815670  0.82847916    -0.20300
C212        C  0.33775530  0.45157262  0.84906865    -0.11100
C213        C  0.42269659  0.58380227  0.79928716    -0.15300
C214        C  0.47042632  0.61215025  0.78201459    -0.29200
C215        C  0.36088871  0.39106073  0.88604496    -0.03400
C216        C  0.31321738  0.36349663  0.90361851    -0.40000
H217        H  0.46202730  0.47228501  0.87096085     0.12800
H218        H  0.48972464  0.55390236  0.83560278     0.12400
H219        H  0.32264691  0.50434998  0.81641705     0.11900
H220        H  0.29511469  0.42302009  0.85158258     0.12100
H221        H  0.39138302  0.59376675  0.79400770     0.14900
H222        H  0.50096107  0.60062131  0.78512376     0.13600
H223        H  0.38945704  0.37667610  0.88670514     0.11300
H224        H  0.28636970  0.38003054  0.90353308     0.13300
C225        C  0.86022333  0.91378163  0.84488303     0.19400
C226        C  0.85591967  0.93187457  0.81049148    -0.18700
C227        C  0.81125823  0.90036467  0.78861291    -0.11000
C228        C  0.76965213  0.85010970  0.80081801     0.21700
C229        C  0.77447861  0.83104211  0.83461840    -0.20300
C230        C  0.81897752  0.86279978  0.85672695    -0.11100
C231        C  0.71950496  0.81924757  0.77955007    -0.15300
C232        C  0.69680053  0.84535840  0.76428170    -0.29200
C233        C  0.90776320  0.94964350  0.86762046    -0.03400
C234        C  0.92461157  0.93133030  0.89516022    -0.40000
H235        H  0.88708664  0.97069494  0.80058452     0.12800
H236        H  0.80891145  0.91557864  0.76226720     0.12400
H237        H  0.74267468  0.79260618  0.84457262     0.11900
H238        H  0.81976149  0.84773393  0.88337618     0.12100
H239        H  0.69968031  0.77545804  0.77837755     0.14900
H240        H  0.71548638  0.88880274  0.76824259     0.13600
H241        H  0.93158624  0.99176511  0.85984332     0.11300
H242        H  0.90384294  0.88843796  0.90088844     0.13300
C243        C  0.38136282  0.93251745  0.87635424     0.19400
C244        C  0.43353983  0.95514114  0.86186484    -0.18700
C245        C  0.44861359  0.92392418  0.84069981    -0.11000
C246        C  0.41149071  0.86915044  0.83329225     0.21700
C247        C  0.35908346  0.84675567  0.84745209    -0.20300
C248        C  0.34411392  0.87790525  0.86875767    -0.11100
C249        C  0.42425964  0.83582352  0.80819918    -0.15300
C250        C  0.47485875  0.84783547  0.79973660    -0.29200
C251        C  0.36588249  0.96765168  0.89712520    -0.03400
C252        C  0.32680190  0.94805351  0.92253343    -0.40000
H253        H  0.46262686  0.99732402  0.86665314     0.12800
H254        H  0.48875285  0.94363967  0.82921165     0.12400
H255        H  0.32928631  0.80516443  0.84150959     0.11900
H256        H  0.30281637  0.85946156  0.87813642     0.12100
H257        H  0.39065922  0.80171412  0.79477765     0.14900
H258        H  0.50892177  0.88112468  0.81325640     0.13600
H259        H  0.38653971  0.01030713  0.89058543     0.11300
H260        H  0.30722640  0.90541837  0.92909503     0.13300
C261        C  0.36068264  0.92142687  0.55306060     0.19400
C262        C  0.37487718  0.93646195  0.58937897    -0.18700
C263        C  0.38394355  0.90358684  0.61264896    -0.11000
C264        C  0.38001031  0.85518029  0.59993402     0.21700
C265        C  0.36481888  0.83941653  0.56382105    -0.20300
C266        C  0.35568548  0.87240820  0.54043014    -0.11100
C267        C  0.39515076  0.82286488  0.62341327    -0.15300
C268        C  0.43726754  0.84802420  0.64596571    -0.29200
C269        C  0.35044081  0.95755484  0.52973228    -0.03400
C270        C  0.31721751  0.93945734  0.50101635    -0.40000
H271        H  0.37849119  0.97362320  0.59992007     0.12800
H272        H  0.39430531  0.91627038  0.64062611     0.12400
H273        H  0.36183830  0.80248280  0.55338376     0.11900
H274        H  0.34589984  0.85986487  0.51242385     0.12100
H275        H  0.37531988  0.77933982  0.61980827     0.14900
H276        H  0.45970390  0.89191895  0.64656993     0.13600
H277        H  0.36579620  0.99888448  0.53893624     0.11300
H278        H  0.29763051  0.89695132  0.49379253     0.13300
C279        C  0.74043487  0.86389101  0.57447197     0.19400
C280        C  0.77930422  0.84782278  0.57114107    -0.18700
C281        C  0.82587644  0.87748476  0.55023038    -0.11000
C282        C  0.83470338  0.92401820  0.53153038     0.21700
C283        C  0.79540590  0.93960850  0.53423537    -0.20300
C284        C  0.74869077  0.90986445  0.55519301    -0.11100
C285        C  0.88559165  0.95878007  0.51088441    -0.15300
C286        C  0.91771241  0.94044983  0.49784733    -0.29200
C287        C  0.69392332  0.83289319  0.59973125    -0.03400
C288        C  0.65990612  0.84969518  0.61130251    -0.40000
H289        H  0.77445116  0.81289523  0.58571018     0.12800
H290        H  0.85555539  0.86465274  0.55001437     0.12400
H291        H  0.80103826  0.97524752  0.52023818     0.11900
H292        H  0.71975867  0.92359018  0.55621385     0.12100
H293        H  0.89611091  0.00030190  0.50626344     0.14900
H294        H  0.90421277  0.89780109  0.50053945     0.13600
H295        H  0.69037036  0.79666326  0.61176637     0.11300
H296        H  0.66350312  0.88674237  0.60103708     0.13300
C297        C  0.97423770  0.65952795  0.30327829     0.19400
C298        C  0.02660314  0.68737452  0.31753709    -0.18700
C299        C  0.04341655  0.73356489  0.33895917    -0.11000
C300        C  0.00795854  0.75303021  0.34693148     0.21700
C301        C  0.95595854  0.72595728  0.33204733    -0.20300
C302        C  0.93911078  0.67968977  0.31051115    -0.11100
C303        C  0.02474774  0.80264696  0.36921007    -0.15300
C304        C  0.06496006  0.82074647  0.39361874    -0.29200
C305        C  0.95928356  0.61125039  0.27996477    -0.03400
C306        C  0.90864442  0.57567825  0.26944802    -0.40000
H307        H  0.05491116  0.67352388  0.31188374     0.12800
H308        H  0.08465073  0.75439455  0.34839783     0.12400
H309        H  0.92820715  0.74066164  0.33712745     0.11900
H310        H  0.89897654  0.66080101  0.29925485     0.12100
H311        H  0.00363893  0.82483610  0.36500895     0.14900
H312        H  0.08525930  0.79784514  0.39806126     0.13600
H313        H  0.99184792  0.60468440  0.27106583     0.11300
H314        H  0.87497464  0.58027419  0.27824867     0.13300
C315        C  0.96572097  0.30504670  0.33359018     0.19400
C316        C  0.94502531  0.25304158  0.34795027    -0.18700
C317        C  0.97681596  0.24027812  0.36995049    -0.11000
C318        C  0.03060758  0.27931371  0.37809663     0.21700
C319        C  0.05134844  0.33136713  0.36377417    -0.20300
C320        C  0.01938876  0.34425785  0.34195308    -0.11100
C321        C  0.06714129  0.26552973  0.39854867    -0.15300
C322        C  0.04857242  0.22456596  0.42244027    -0.29200
C323        C  0.93214291  0.31530306  0.30734621    -0.03400
C324        C  0.94080201  0.36499902  0.29952338    -0.40000
H325        H  0.90432341  0.22172249  0.34148791     0.12800
H326        H  0.95962182  0.19908698  0.37915439     0.12400
H327        H  0.09281534  0.36197404  0.36896313     0.11900
H328        H  0.03777584  0.38432581  0.33053976     0.12100
H329        H  0.10994172  0.28827146  0.39241956     0.14900
H330        H  0.00579884  0.20298230  0.42875016     0.13600
H331        H  0.90047896  0.28073995  0.29297024     0.11300
H332        H  0.97136297  0.39968056  0.31434715     0.13300
C333        C  0.41562580  0.53964296  0.58260306     0.19400
C334        C  0.44133131  0.52520276  0.55584892    -0.18700
C335        C  0.41206907  0.47880829  0.53434673    -0.11000
C336        C  0.35601568  0.44492819  0.53944909     0.21700
C337        C  0.33034089  0.45989704  0.56594495    -0.20300
C338        C  0.35955039  0.50630830  0.58731651    -0.11100
C339        C  0.32276225  0.39294065  0.51908979    -0.15300
C340        C  0.34312167  0.37011560  0.49648552    -0.29200
C341        C  0.44888244  0.58754495  0.60644816    -0.03400
C342        C  0.42816567  0.61315729  0.62582463    -0.40000
H343        H  0.48443602  0.54985648  0.55164904     0.12800
H344        H  0.43408283  0.47003950  0.51411673     0.12400
H345        H  0.28743505  0.43481880  0.57077513     0.11900
H346        H  0.33802610  0.51461659  0.60824340     0.12100
H347        H  0.27988323  0.37092251  0.52499684     0.14900
H348        H  0.38619602  0.39024074  0.49181436     0.13600
H349        H  0.49174199  0.60159150  0.60851645     0.11300
H350        H  0.38585432  0.60081636  0.62309587     0.13300
C351        C  0.54651215  0.27275226  0.37063409     0.19400
C352        C  0.57666839  0.32458047  0.35573257    -0.18700
C353        C  0.62188384  0.33809888  0.33386284    -0.11000
C354        C  0.63766861  0.29964861  0.32579824     0.21700
C355        C  0.60838336  0.24829406  0.34143151    -0.20300
C356        C  0.56316081  0.23475080  0.36328393    -0.11100
C357        C  0.68388075  0.31151144  0.30101946    -0.15300
C358        C  0.69976972  0.34844728  0.27444199    -0.29200
C359        C  0.49608222  0.25863287  0.39142588    -0.03400
C360        C  0.47312997  0.21718951  0.41496277    -0.40000
H361        H  0.56502443  0.35472898  0.36088995     0.12800
H362        H  0.64432822  0.37877951  0.32346757     0.12400
H363        H  0.61955459  0.21790671  0.33581281     0.11900
H364        H  0.54047383  0.19383104  0.37317481     0.12100
H365        H  0.70343602  0.28747815  0.30354933     0.14900
H366        H  0.67843138  0.37049623  0.27067216     0.13600
H367        H  0.47663181  0.28210951  0.38604896     0.11300
H368        H  0.49351635  0.19469662  0.42060175     0.15500
loop_ 
_geom_bond_atom_site_label_1 
_geom_bond_atom_site_label_2 
_geom_bond_distance 
_geom_bond_site_symmetry_2 
_ccdc_geom_bond_type 
C1            C2   1.417       .  A
C1            C6   1.406       .  A
C1          C360   1.494       .  S
C2            C3   1.416       .  A
C2            H7   1.081       .  S
C3            C4   1.405       .  A
C3           C12   1.500       .  S
C4            C5   1.404       .  A
C4            H8   1.083       .  S
C5            C6   1.399       .  A
C5           C50   1.488       .  S
C6            H9   1.084       .  S
C10          C11   1.408       .  A
C10          C15   1.417       .  A
C10         C340   1.495       .  S
C11          C12   1.402       .  A
C11          H16   1.084       .  S
C12          C13   1.411       .  A
C13          C14   1.413       .  A
C13          H17   1.083       .  S
C14          C15   1.413       .  A
C14          C21   1.507       .  S
C15          H18   1.081       .  S
C19          C20   1.417       .  A
C19          C24   1.405       .  A
C19         C322   1.493       .  S
C20          C21   1.416       .  A
C20          H25   1.082       .  S
C21          C22   1.413       .  A
C22          C23   1.409       .  A
C22          H26   1.083       .  S
C23          C24   1.399       .  A
C23          C39   1.495       .  S
C24          H27   1.084       .  S
C28          C29   1.404       .  A
C28          C33   1.413       .  A
C28         C304   1.485       .  S
C29          C30   1.399       .  A
C29          H34   1.084       .  S
C30          C31   1.397       .  A
C30          C48   1.478       .  S
C31          C32   1.401       .  A
C31          H35   1.084   1_565  S
C32          C33   1.410       .  A
C32          C41   1.486       .  S
C33          H36   1.082       .  S
C37          C38   1.417   1_565  A
C37          C42   1.408       .  A
C37         C286   1.497       .  S
C38          C39   1.413   1_655  A
C38          H43   1.080       .  S
C39          C40   1.402       .  A
C40          C41   1.403   1_545  A
C40          H44   1.084       .  S
C41          C42   1.400   1_455  A
C42          H45   1.084       .  S
C46          C47   1.402       .  A
C46          C51   1.413   1_565  A
C46         C270   1.482       .  S
C47          C48   1.398       .  A
C47          H52   1.084       .  S
C48          C49   1.399   1_565  A
C49          C50   1.402       .  A
C49          H53   1.084       .  S
C50          C51   1.410       .  A
C51          H54   1.083       .  S
Fe55         O71   2.088       .  S
Fe55         O61   2.066       .  S
Fe55         O68   2.088       .  S
Fe55         O60   2.092       .  S
Fe55         O66   1.982       .  S
Fe56         O59   2.061       .  S
Fe56         O63   2.040       .  S
Fe56         O67   2.055       .  S
Fe56         O72   2.037       .  S
Fe56         O66   1.969       .  S
Fe57         O75   2.089       .  S
Fe57         O62   2.082       .  S
Fe57         O69   2.084       .  S
Fe57         O58   2.072       .  S
Fe57         O66   1.980       .  S
O58          C65   1.271       .  A
O59          C73   1.268       .  A
O60          C65   1.276       .  A
O61          C64   1.269       .  A
O62          C74   1.271       .  A
O63          C76   1.262       .  A
C64         C342   1.483       .  S
C64          O69   1.273       .  A
C65         C214   1.488       .  S
O67          C70   1.267       .  A
O68          C70   1.273       .  A
C70         C250   1.478       .  S
O71          C76   1.272       .  A
O72          C74   1.261       .  A
C73         C288   1.484       .  S
C73          O75   1.274       .  A
C74         C232   1.468       .  S
C76         C268   1.471       .  S
C77          C78   1.406       .  A
C77          C82   1.416       .  A
C77         C198   1.490       .  S
C78          C79   1.399       .  A
C78          H83   1.084   1_455  S
C79          C80   1.402       .  A
C79          C88   1.480       .  S
C80          C81   1.402       .  A
C80          H84   1.084       .  S
C81          C82   1.409       .  A
C81         C126   1.490       .  S
C82          H85   1.082       .  S
C86          C87   1.413   1_565  A
C86          C91   1.402   1_655  A
C86         C234   1.481       .  S
C87          C88   1.407   1_655  A
C87          H92   1.082       .  S
C88          C89   1.399       .  A
C89          C90   1.397   1_545  A
C89          H93   1.084       .  S
C90          C91   1.398       .  A
C90          C97   1.476       .  S
C91          H94   1.084   1_455  S
C95          C96   1.404       .  A
C95         C100   1.414       .  A
C95         C180   1.487   1_556  S
C96          C97   1.398       .  A
C96         H101   1.084       .  S
C97          C98   1.396       .  A
C98          C99   1.399       .  A
C98         H102   1.084   1_565  S
C99         C100   1.412       .  A
C99         C106   1.485       .  S
C100        H103   1.082   1_556  S
C104        C105   1.404       .  A
C104        C109   1.415   1_565  A
C104        C252   1.487       .  S
C105        C106   1.397       .  A
C105        H110   1.084       .  S
C106        C107   1.406   1_565  A
C107        C108   1.405       .  A
C107        H111   1.084       .  S
C108        C109   1.410       .  A
C108        C117   1.494       .  S
C109        H112   1.082       .  S
C113        C114   1.413       .  A
C113        C118   1.413       .  A
C113        C162   1.496   1_556  S
C114        C115   1.407       .  A
C114        H119   1.084       .  S
C115        C116   1.409       .  A
C115        C124   1.502       .  S
C116        C117   1.408       .  A
C116        H120   1.084       .  S
C117        C118   1.406       .  A
C118        H121   1.081       .  S
C122        C123   1.419       .  A
C122        C127   1.409       .  A
C122        C216   1.498       .  S
C123        C124   1.416       .  A
C123        H128   1.081       .  S
C124        C125   1.407       .  A
C125        C126   1.404       .  A
C125        H129   1.084       .  S
C126        C127   1.400       .  A
C127        H130   1.084       .  S
Fe131       O147   2.092       .  S
Fe131       O137   2.082       .  S
Fe131       O144   2.091       .  S
Fe131       O136   2.104       .  S
Fe131       O142   1.972       .  S
Fe132       O135   2.084       .  S
Fe132       O139   2.062       .  S
Fe132       O143   2.070       .  S
Fe132       O148   2.059       .  S
Fe132       O142   1.965       .  S
Fe133       O151   2.054       .  S
Fe133       O138   2.075       .  S
Fe133       O145   2.067       .  S
Fe133       O134   2.054       .  S
Fe133       O142   1.961       .  S
O134        C141   1.265       .  A
O135        C149   1.272       .  A
O136        C141   1.275       .  A
O137        C140   1.274       .  A
O138        C150   1.271       .  A
O139        C152   1.269       .  A
C140        C196   1.477       .  S
C140        O145   1.270       .  A
C141        C324   1.486       .  S
O143        C146   1.271       .  A
O144        C146   1.277       .  A
C146        C358   1.483       .  S
O147        C152   1.273       .  A
O148        C150   1.267       .  A
C149        C178   1.478       .  S
C149        O151   1.265       .  A
C150        C306   1.478       .  S
C152        C160   1.487       .  S
C153        C154   1.408       .  A
C153        C158   1.409       .  A
C153        C161   1.501       .  S
C154        C155   1.404       .  A
C154        H163   1.083       .  S
C155        C156   1.408       .  A
C155        H164   1.081       .  S
C156        C157   1.404       .  A
C156        C159   1.495       .  S
C157        C158   1.399       .  A
C157        H165   1.083       .  S
C158        H166   1.079       .  S
C159        H167   1.087       .  S
C159        C160   1.351       .  D
C160        H168   1.084       .  S
C161        H169   1.084   1_554  S
C161        C162   1.354       .  D
C162        H170   1.082       .  S
C171        C172   1.404       .  A
C171        C176   1.408   1_455  A
C171        C179   1.490       .  S
C172        C173   1.402       .  A
C172        H181   1.083       .  S
C173        C174   1.409   1_455  A
C173        H182   1.082       .  S
C174        C175   1.402       .  A
C174        C177   1.488       .  S
C175        C176   1.396       .  A
C175        H183   1.083       .  S
C176        H184   1.082       .  S
C177        H185   1.087       .  S
C177        C178   1.345       .  D
C178        H186   1.085       .  S
C179        H187   1.085       .  S
C179        C180   1.346       .  D
C180        H188   1.086       .  S
C189        C190   1.402       .  A
C189        C194   1.410   1_455  A
C189        C197   1.491       .  S
C190        C191   1.396       .  A
C190        H199   1.083       .  S
C191        C192   1.408   1_455  A
C191        H200   1.081       .  S
C192        C193   1.404       .  A
C192        C195   1.492       .  S
C193        C194   1.403       .  A
C193        H201   1.083       .  S
C194        H202   1.081       .  S
C195        H203   1.087       .  S
C195        C196   1.346       .  D
C196        H204   1.085       .  S
C197        H205   1.085       .  S
C197        C198   1.347   1_554  D
C198        H206   1.085   1_455  S
C207        C208   1.405       .  A
C207        C212   1.410       .  A
C207        C215   1.500       .  S
C208        C209   1.405       .  A
C208        H217   1.083       .  S
C209        C210   1.411       .  A
C209        H218   1.081       .  S
C210        C211   1.404       .  A
C210        C213   1.500       .  S
C211        C212   1.402       .  A
C211        H219   1.083       .  S
C212        H220   1.081       .  S
C213        H221   1.087       .  S
C213        C214   1.349       .  D
C214        H222   1.084       .  S
C215        H223   1.084       .  S
C215        C216   1.351       .  D
C216        H224   1.085       .  S
C225        C226   1.402       .  A
C225        C230   1.412       .  A
C225        C233   1.487       .  S
C226        C227   1.395       .  A
C226        H235   1.083       .  S
C227        C228   1.407       .  A
C227        H236   1.083       .  S
C228        C229   1.399       .  A
C228        C231   1.480       .  S
C229        C230   1.399       .  A
C229        H237   1.083       .  S
C230        H238   1.080       .  S
C231        H239   1.086       .  S
C231        C232   1.339       .  D
C232        H240   1.088       .  S
C233        H241   1.086       .  S
C233        C234   1.343       .  D
C234        H242   1.084       .  S
C243        C244   1.402       .  A
C243        C248   1.409       .  A
C243        C251   1.489       .  S
C244        C245   1.400       .  A
C244        H253   1.083       .  S
C245        C246   1.410       .  A
C245        H254   1.081       .  S
C246        C247   1.403       .  A
C246        C249   1.492       .  S
C247        C248   1.399       .  A
C247        H255   1.083       .  S
C248        H256   1.082       .  S
C249        H257   1.087       .  S
C249        C250   1.346       .  D
C250        H258   1.084       .  S
C251        H259   1.085   1_565  S
C251        C252   1.346       .  D
C252        H260   1.086       .  S
C261        C262   1.401       .  A
C261        C266   1.411       .  A
C261        C269   1.487       .  S
C262        C263   1.395       .  A
C262        H271   1.083       .  S
C263        C264   1.408       .  A
C263        H272   1.083       .  S
C264        C265   1.402       .  A
C264        C267   1.486       .  S
C265        C266   1.401       .  A
C265        H273   1.083       .  S
C266        H274   1.081       .  S
C267        H275   1.086       .  S
C267        C268   1.341       .  D
C268        H276   1.087       .  S
C269        H277   1.086       .  S
C269        C270   1.343       .  D
C270        H278   1.085       .  S
C279        C280   1.405       .  A
C279        C284   1.411       .  A
C279        C287   1.498       .  S
C280        C281   1.399       .  A
C280        H289   1.083       .  S
C281        C282   1.409       .  A
C281        H290   1.081       .  S
C282        C283   1.405       .  A
C282        C285   1.497       .  S
C283        C284   1.403       .  A
C283        H291   1.083       .  S
C284        H292   1.080       .  S
C285        H293   1.084   1_565  S
C285        C286   1.350       .  D
C286        H294   1.085       .  S
C287        H295   1.087       .  S
C287        C288   1.349       .  D
C288        H296   1.083       .  S
C297        C298   1.403   1_655  A
C297        C302   1.410       .  A
C297        C305   1.490       .  S
C298        C299   1.397       .  A
C298        H307   1.084       .  S
C299        C300   1.409       .  A
C299        H308   1.081       .  S
C300        C301   1.403   1_455  A
C300        C303   1.490       .  S
C301        C302   1.401       .  A
C301        H309   1.083       .  S
C302        H310   1.080       .  S
C303        H311   1.085       .  S
C303        C304   1.346       .  D
C304        H312   1.085       .  S
C305        H313   1.087       .  S
C305        C306   1.347       .  D
C306        H314   1.083       .  S
C315        C316   1.404       .  A
C315        C320   1.411   1_655  A
C315        C323   1.498       .  S
C316        C317   1.402       .  A
C316        H325   1.083       .  S
C317        C318   1.411   1_655  A
C317        H326   1.081       .  S
C318        C319   1.404       .  A
C318        C321   1.498       .  S
C319        C320   1.404       .  A
C319        H327   1.083       .  S
C320        H328   1.081       .  S
C321        H329   1.085       .  S
C321        C322   1.348       .  D
C322        H330   1.085       .  S
C323        H331   1.087       .  S
C323        C324   1.348       .  D
C324        H332   1.085       .  S
C333        C334   1.404       .  A
C333        C338   1.409       .  A
C333        C341   1.497       .  S
C334        C335   1.403       .  A
C334        H343   1.083       .  S
C335        C336   1.412       .  A
C335        H344   1.079       .  S
C336        C337   1.405       .  A
C336        C339   1.501       .  S
C337        C338   1.401       .  A
C337        H345   1.083       .  S
C338        H346   1.081       .  S
C339        H347   1.085       .  S
C339        C340   1.351       .  D
C340        H348   1.082       .  S
C341        H349   1.087       .  S
C341        C342   1.348       .  D
C342        H350   1.084       .  S
C351        C352   1.404       .  A
C351        C356   1.411       .  A
C351        C359   1.498       .  S
C352        C353   1.402       .  A
C352        H361   1.083       .  S
C353        C354   1.411       .  A
C353        H362   1.081       .  S
C354        C355   1.403       .  A
C354        C357   1.497       .  S
C355        C356   1.402       .  A
C355        H363   1.083       .  S
C356        H364   1.081       .  S
C357        H365   1.086       .  S
C357        C358   1.346       .  D
C358        H366   1.085       .  S
C359        H367   1.085       .  S
C359        C360   1.349       .  D
C360        H368   1.085       .  S
