geometry optimzed in LAMMPS
_audit_creation_date              2020-11-30 
_audit_creation_method            'lammps2cif' 
_symmetry_space_group_name_H-M    'P1' 
_symmetry_Int_Tables_number       1 
_symmetry_cell_setting            triclinic 
loop_ 
_symmetry_equiv_pos_as_xyz 
  x,y,z 
_cell_length_a                    26.29927306 
_cell_length_b                    26.49743548656771 
_cell_length_c                    25.987201906908165 
_cell_angle_alpha                 89.87446245514106 
_cell_angle_beta                  89.71760528496185 
_cell_angle_gamma                 90.1434314418775 
loop_ 
_atom_site_label 
_atom_site_type_symbol 
_atom_site_fract_x 
_atom_site_fract_y 
_atom_site_fract_z 
_atom_site_charge 
O1          O  0.72728969  0.87510993  0.10168322    -0.82600
C2          C  0.52193025  0.83986664  0.08431533     0.96800
O3          O  0.56155327  0.84372129  0.05711878    -0.71700
O4          O  0.65525257  0.86748933  0.02712094    -0.75300
Al5        Al  0.62609660  0.82439349  0.08112548     1.49000
C6          C  0.66064172  0.91513617  0.02473422     0.92000
O7          O  0.63034472  0.97143804  0.15772223    -0.81500
O8          O  0.61980136  0.89975144  0.23129511    -0.75100
Al9        Al  0.67367209  0.91805791  0.12997955     1.90100
O10         O  0.55491588  0.93582261  0.15657499    -0.74200
O11         O  0.59622483  0.80758389  0.20083300    -0.74000
O12         O  0.52449585  0.84389676  0.13291567    -0.79700
O13         O  0.59742834  0.77140357  0.12485920    -0.77900
O14         O  0.62580216  0.87133572  0.12925609    -1.14000
O15         O  0.69059841  0.80069944  0.10077502    -0.73200
C16         C  0.72989564  0.82756253  0.09603105     0.97500
C17         C  0.58220381  0.97467687  0.16093157     0.93900
Al18       Al  0.57755727  0.87166796  0.17678419     1.55600
O19         O  0.65567990  0.94167543  0.06452698    -0.77800
C20         C  0.59262002  0.76858356  0.17348309     0.98100
C21         C  0.66777656  0.90377082  0.23499606     0.93000
O22         O  0.69569742  0.89840774  0.19587562    -0.83100
O23         O  0.90906412  0.22632761  0.62023147    -0.82600
C24         C  0.91828499  0.02336570  0.66139583     0.96800
O25         O  0.94666086  0.06136638  0.65565805    -0.71700
O26         O  0.97940183  0.15239153  0.62957174    -0.75300
Al27       Al  0.92573205  0.12654968  0.67458781     1.49000
C28         C  0.98198952  0.15587842  0.58088053     0.92000
O29         O  0.84835332  0.12974361  0.52558293    -0.81500
O30         O  0.77588968  0.12613647  0.60168932    -0.75100
Al31       Al  0.87870899  0.17307619  0.57815082     1.90100
O32         O  0.84523823  0.05644644  0.56494164    -0.74200
O33         O  0.80706044  0.10335275  0.69567597    -0.74000
O34         O  0.87023499  0.02778540  0.65851081    -0.79700
O35         O  0.88287074  0.10025169  0.73020668    -0.77900
O36         O  0.87751681  0.12720754  0.62754852    -1.14000
O37         O  0.90870065  0.19171573  0.69714452    -0.73200
C38         C  0.91395475  0.23003132  0.66875248     0.97500
C39         C  0.84172047  0.08222347  0.52441863     0.93900
Al40       Al  0.82828158  0.08192660  0.63002793     1.55600
O41         O  0.94246406  0.15119455  0.55415567    -0.77800
C42         C  0.83483865  0.09690649  0.73444729     0.98100
C43         C  0.77486452  0.17367021  0.59499918     0.93000
O44         O  0.81521953  0.19912198  0.59769065    -0.83100
O45         O  0.37567599  0.47191354  0.34824541    -0.82600
C46         C  0.41018440  0.26869085  0.32757059     0.96800
O47         O  0.40476468  0.30774052  0.30038192    -0.71700
O48         O  0.38194709  0.40177455  0.27212454    -0.75300
Al49       Al  0.42543017  0.37153576  0.32487517     1.49000
C50         C  0.33402194  0.40773215  0.27039860     0.92000
O51         O  0.27843264  0.37576258  0.40416965    -0.81500
O52         O  0.35100672  0.36469211  0.47663803    -0.75100
Al53       Al  0.33205257  0.41877329  0.37588521     1.90100
O54         O  0.31377286  0.30073099  0.40183153    -0.74200
O55         O  0.44389691  0.34194039  0.44406763    -0.74000
O56         O  0.40634579  0.27111069  0.37624609    -0.79700
O57         O  0.47916840  0.34212974  0.36719620    -0.77900
O58         O  0.37868605  0.37114567  0.37385109    -1.14000
O59         O  0.45019014  0.43484667  0.34534662    -0.73200
C60         C  0.42365358  0.47422818  0.34292423     0.97500
C61         C  0.27504568  0.32803307  0.40768260     0.93900
Al62       Al  0.37877987  0.32319142  0.42110052     1.55600
O63         O  0.30735295  0.40193548  0.31033706    -0.77800
C64         C  0.48272158  0.33788118  0.41579544     0.98100
C65         C  0.34721477  0.41230093  0.48048799     0.93000
O66         O  0.35273907  0.43989091  0.44138963    -0.83100
O67         O  0.02539227  0.65322271  0.86863097    -0.82600
C68         C  0.22992929  0.67244201  0.90663106     0.96800
O69         O  0.19060988  0.69879489  0.90089609    -0.71700
O70         O  0.09719204  0.72665363  0.87639616    -0.75300
Al71       Al  0.12605880  0.67432830  0.92060799     1.49000
C72         C  0.09207753  0.72919632  0.82781822     0.92000
O73         O  0.12310803  0.59779524  0.77106090    -0.81500
O74         O  0.13346953  0.52696020  0.84435812    -0.75100
Al75       Al  0.07944595  0.62571172  0.82507896     1.90100
O76         O  0.19832374  0.60094547  0.80717613    -0.74200
O77         O  0.15641373  0.55734642  0.93841333    -0.74000
O78         O  0.22784648  0.62481253  0.90163937    -0.79700
O79         O  0.15465869  0.63187500  0.97514445    -0.77900
O80         O  0.12695125  0.62707353  0.87287803    -1.14000
O81         O  0.06145933  0.65421717  0.94456860    -0.73200
C82         C  0.02232555  0.65829299  0.91716136     0.97500
C83         C  0.17118647  0.59380125  0.76802626     0.93900
Al84       Al  0.17538372  0.58105518  0.87286407     1.55600
O85         O  0.09741141  0.69028005  0.80054032    -0.77800
C86         C  0.16011403  0.58425877  0.97813707     0.98100
C87         C  0.08552160  0.52291376  0.84008345     0.93000
O88         O  0.05744398  0.56101091  0.84558713    -0.83100
C89         C  0.30618758  0.48995405  0.15519073    -0.11600
C90         C  0.25430704  0.47983214  0.14715502     0.05500
C91         C  0.23042057  0.44219549  0.17682236    -0.10400
C92         C  0.25728210  0.41663318  0.21511390    -0.12000
C93         C  0.30888383  0.42734837  0.22379262    -0.01800
C94         C  0.33336223  0.46363258  0.19289058    -0.10900
C95         C  0.22533349  0.50785178  0.10742145     0.05500
H96         H  0.19048957  0.43370908  0.17148816     0.07500
H97         H  0.23735722  0.38936914  0.23896672     0.10900
H98         H  0.37278041  0.47343692  0.19963406     0.11200
H99         H  0.32563309  0.51840293  0.13241759     0.07500
C100        C  0.22905397  0.56068730  0.10323026    -0.11600
C101        C  0.20446994  0.58640975  0.06328405    -0.10900
C102        C  0.17637878  0.55960301  0.02645474    -0.01800
C103        C  0.17100486  0.50705228  0.03203826    -0.12000
C104        C  0.19491424  0.48152776  0.07225306    -0.10400
H105        H  0.25182864  0.58191145  0.13026318     0.07500
H106        H  0.20983002  0.62679879  0.05954111     0.11200
H107        H  0.14980965  0.48534770  0.00408342     0.10900
H108        H  0.19146089  0.44084146  0.07451540     0.07500
C109        C  0.19738693  0.51133722  0.65288304    -0.11600
C110        C  0.24987917  0.51909842  0.64576879     0.05500
C111        C  0.27465919  0.55572891  0.67556860    -0.10400
C112        C  0.24807459  0.58263090  0.71308077    -0.12000
C113        C  0.19597198  0.57395007  0.72125483    -0.01800
C114        C  0.17056748  0.53880411  0.69010878    -0.10900
C115        C  0.27887271  0.48983092  0.60694078     0.05500
H116        H  0.31509308  0.56235470  0.67107083     0.07500
H117        H  0.26868725  0.60899956  0.73705140     0.10900
H118        H  0.13063577  0.53061062  0.69639932     0.11200
H119        H  0.17723482  0.48378465  0.62993152     0.07500
C120        C  0.27188445  0.43743055  0.60158898    -0.11600
C121        C  0.29760782  0.41084960  0.56287477    -0.10900
C122        C  0.33018552  0.43645254  0.52862691    -0.01800
C123        C  0.33868434  0.48834015  0.53549429    -0.12000
C124        C  0.31346023  0.51468114  0.57427249    -0.10400
H125        H  0.24587824  0.41726776  0.62675008     0.07500
H126        H  0.28971821  0.37103019  0.55782850     0.11200
H127        H  0.36325876  0.50907878  0.50933975     0.10900
H128        H  0.31942509  0.55501507  0.57731615     0.07500
C129        C  0.68718507  0.27786826  0.55162182    -0.11600
C130        C  0.64903422  0.25044756  0.52651829     0.05500
C131        C  0.64919150  0.19748713  0.52968772    -0.10400
C132        C  0.68818095  0.17225877  0.55557473    -0.12000
C133        C  0.72804759  0.19960849  0.57811421    -0.01800
C134        C  0.72647522  0.25271543  0.57689439    -0.10900
C135        C  0.60990299  0.27691857  0.49595472     0.05500
H136        H  0.61966066  0.17562491  0.51115713     0.07500
H137        H  0.68860248  0.13139160  0.55544957     0.10900
H138        H  0.75674450  0.27487406  0.59377615     0.11200
H139        H  0.68775680  0.31871382  0.54980572     0.07500
C140        C  0.58185567  0.31661754  0.51761212    -0.11600
C141        C  0.54211902  0.33875221  0.49015183    -0.10900
C142        C  0.53071952  0.32250883  0.44008811    -0.01800
C143        C  0.56068111  0.28488474  0.41727314    -0.12000
C144        C  0.59964611  0.26188286  0.44520758    -0.10400
H145        H  0.58916875  0.32887662  0.55662166     0.07500
H146        H  0.51910404  0.36737976  0.50863536     0.11200
H147        H  0.55196137  0.27114718  0.37907038     0.10900
H148        H  0.62123737  0.23171866  0.42755663     0.07500
C149        C  0.07278923  0.19404916  0.47504144    -0.11600
C150        C  0.10988632  0.22049966  0.50265426     0.05500
C151        C  0.10806263  0.22017051  0.55669555    -0.10400
C152        C  0.06838538  0.19556075  0.58266940    -0.12000
C153        C  0.02956341  0.17155888  0.55490132    -0.01800
C154        C  0.03285578  0.17004210  0.50087985    -0.10900
C155        C  0.14947054  0.24956842  0.47494699     0.05500
H156        H  0.13675324  0.23989307  0.57870707     0.07500
H157        H  0.06658092  0.19777607  0.62424894     0.10900
H158        H  0.00340046  0.15200201  0.47841782     0.11200
H159        H  0.07352845  0.19379052  0.43336048     0.07500
C160        C  0.17852476  0.22660921  0.43615333    -0.11600
C161        C  0.21768143  0.25329084  0.41179844    -0.10900
C162        C  0.22762949  0.30371155  0.42500895    -0.01800
C163        C  0.19691895  0.32748226  0.46197969    -0.12000
C164        C  0.15841969  0.30043467  0.48714401    -0.10400
H165        H  0.17216671  0.18744871  0.42612228     0.07500
H166        H  0.24131264  0.23406333  0.38381167     0.11200
H167        H  0.20458318  0.36601138  0.47353673     0.10900
H168        H  0.13599631  0.31899068  0.51657702     0.07500
C169        C  0.98548350  0.35199414  0.69032687    -0.11600
C170        C  0.98109597  0.35723893  0.74402977     0.05500
C171        C  0.94976229  0.32360587  0.77144049    -0.10400
C172        C  0.92530892  0.28406409  0.74617719    -0.12000
C173        C  0.93120688  0.27750742  0.69282913    -0.01800
C174        C  0.96044915  0.31262110  0.66485385    -0.10900
C175        C  0.00948577  0.39713648  0.77178844     0.05500
H176        H  0.94576927  0.32670234  0.81281034     0.02300
H177        H  0.90318888  0.25743296  0.76876241     0.10900
H178        H  0.96615338  0.30809698  0.62382010     0.11200
H179        H  0.00888214  0.37791173  0.66821953     0.07500
C180        C  0.06118700  0.40623243  0.76112777    -0.11600
C181        C  0.08733556  0.44488367  0.78651700    -0.10900
C182        C  0.06194322  0.47555552  0.82233675    -0.01800
C183        C  0.01074096  0.46547699  0.83403420    -0.12000
C184        C  0.98490243  0.42639272  0.80936064    -0.10400
H185        H  0.08118519  0.38376069  0.73279085     0.07500
H186        H  0.12654166  0.45254571  0.77610075     0.11200
H187        H  0.99020186  0.48899551  0.86107180     0.10900
H188        H  0.94508310  0.42026598  0.81823828     0.07500
C189        C  0.05447810  0.82145373  0.72380121    -0.11600
C190        C  0.02287172  0.85464174  0.75115391     0.05500
C191        C  0.01861619  0.84934466  0.80483799    -0.10400
C192        C  0.04424274  0.81057161  0.83049969    -0.12000
C193        C  0.07395788  0.77592847  0.80279207    -0.01800
C194        C  0.07941057  0.78222905  0.74929619    -0.10900
C195        C  0.99429961  0.89459156  0.72375526     0.05500
H196        H  0.99497842  0.87492108  0.82685354     0.07500
H197        H  0.03871177  0.80616164  0.87159190     0.10900
H198        H  0.10175210  0.75582726  0.72690792     0.11200
H199        H  0.05840553  0.82476387  0.68242694     0.07500
C200        C  0.01921735  0.92613288  0.68820958    -0.11600
C201        C  0.99344081  0.96636900  0.66543968    -0.10900
C202        C  0.94198971  0.97532168  0.67703338    -0.01800
C203        C  0.91625430  0.94214042  0.71040374    -0.12000
C204        C  0.94232728  0.90233639  0.73391254    -0.10400
H205        H  0.05923624  0.92098536  0.67976612     0.07500
H206        H  0.01424046  0.99162378  0.64008951     0.11200
H207        H  0.87682968  0.94867262  0.72058914     0.10900
H208        H  0.92215809  0.87810694  0.76076248     0.07500
C209        C  0.69228477  0.98075619  0.35397793    -0.11600
C210        C  0.74440464  0.97197679  0.36172069     0.05500
C211        C  0.76914289  0.93553782  0.33154992    -0.10400
C212        C  0.74309726  0.91060518  0.29235789    -0.12000
C213        C  0.69158811  0.92097201  0.28314124    -0.01800
C214        C  0.66598097  0.95516058  0.31525373    -0.10900
C215        C  0.77322453  0.00139668  0.40038099     0.05500
H216        H  0.80926503  0.92805048  0.33668916     0.07500
H217        H  0.76376249  0.88469248  0.26782903     0.10900
H218        H  0.62648133  0.96440388  0.30840336     0.11200
H219        H  0.67216274  0.00812633  0.37726397     0.07500
C220        C  0.76728361  0.05402050  0.40413673    -0.11600
C221        C  0.79290176  0.08134684  0.44215098    -0.10900
C222        C  0.82430850  0.05634371  0.47744447    -0.01800
C223        C  0.83166318  0.00404914  0.47241423    -0.12000
C224        C  0.80666774  0.97692128  0.43407675    -0.10400
H225        H  0.74225322  0.07388166  0.37808887     0.07500
H226        H  0.78593297  0.12145928  0.44573378     0.11200
H227        H  0.85536263  0.98379065  0.49942558     0.10900
H228        H  0.81191250  0.93644383  0.43207861     0.07500
C229        C  0.69439272  0.01944761  0.93210268    -0.11600
C230        C  0.72995853  0.99566890  0.89990084     0.05500
C231        C  0.73819211  0.94348852  0.90556599    -0.10400
C232        C  0.71243701  0.91601279  0.94380406    -0.12000
C233        C  0.67856038  0.94044850  0.97736724    -0.01800
C234        C  0.66923140  0.99221594  0.97058777    -0.10900
C235        C  0.75835423  0.02549616  0.86075797     0.05500
H236        H  0.76498120  0.92411802  0.88080180     0.07500
H237        H  0.72108596  0.87637238  0.94892282     0.10900
H238        H  0.64374908  0.01207627  0.99636729     0.11200
H239        H  0.68744783  0.05958954  0.92878382     0.07500
C240        C  0.73271976  0.06056674  0.82975960    -0.11600
C241        C  0.75856184  0.08661830  0.79083494    -0.10900
C242        C  0.81074435  0.07867740  0.78246620    -0.01800
C243        C  0.83703319  0.04556571  0.81512283    -0.12000
C244        C  0.81097978  0.01893769  0.85372453    -0.10400
H245        H  0.69218120  0.06629078  0.83421242     0.07500
H246        H  0.73726790  0.11151968  0.76586184     0.11200
H247        H  0.87705794  0.03803862  0.80891429     0.10900
H248        H  0.83178573  0.99263994  0.87759051     0.07500
C249        C  0.55992822  0.67559235  0.27843267    -0.11600
C250        C  0.52999594  0.64079516  0.25158641     0.05500
C251        C  0.52585949  0.64483306  0.19788592    -0.10400
C252        C  0.54974499  0.68446167  0.17156657    -0.12000
C253        C  0.57727319  0.72106651  0.19880400    -0.01800
C254        C  0.58303041  0.71566823  0.25232410    -0.10900
C255        C  0.50185287  0.60122444  0.27973468     0.05500
H256        H  0.50324182  0.61790275  0.17654675     0.07500
H257        H  0.54421231  0.68808849  0.13045152     0.10900
H258        H  0.60391692  0.74349382  0.27426692     0.11200
H259        H  0.56362490  0.67293231  0.31984917     0.07500
C260        C  0.52779566  0.56711897  0.31136606    -0.11600
C261        C  0.50160785  0.52730256  0.33481258    -0.10900
C262        C  0.44892343  0.52163763  0.32777877    -0.01800
C263        C  0.42255159  0.55758584  0.29858459    -0.12000
C264        C  0.44895212  0.59684205  0.27429840    -0.10400
H265        H  0.56858780  0.57010439  0.31613069     0.07500
H266        H  0.52282186  0.49985854  0.35692491     0.11200
H267        H  0.38210811  0.55360484  0.29195567     0.10900
H268        H  0.42829869  0.62325571  0.25041274     0.07500
C269        C  0.47861580  0.06826600  0.19151193    -0.11600
C270        C  0.50511336  0.10389626  0.22090810     0.05500
C271        C  0.55824674  0.10002403  0.22501957    -0.10400
C272        C  0.58416942  0.05983023  0.20209374    -0.12000
C273        C  0.55723138  0.02249671  0.17529291    -0.01800
C274        C  0.50437633  0.02775939  0.16920021    -0.10900
C275        C  0.47718060  0.14360604  0.24920412     0.05500
H276        H  0.57952323  0.12749481  0.24703761     0.07500
H277        H  0.62478393  0.05645607  0.20782125     0.10900
H278        H  0.48261649  0.99944344  0.14882449     0.11200
H279        H  0.43767262  0.07045899  0.18783022     0.07500
C280        C  0.44061798  0.17334448  0.22429812    -0.11600
C281        C  0.41650880  0.21265581  0.25059529    -0.10900
C282        C  0.42763731  0.22196892  0.30254420    -0.01800
C283        C  0.46229267  0.19059956  0.32808769    -0.12000
C284        C  0.48719855  0.15206486  0.30151939    -0.10400
H285        H  0.43222316  0.16742410  0.18399735     0.07500
H286        H  0.39028251  0.23672041  0.22998991     0.11200
H287        H  0.47218772  0.19758165  0.36786758     0.10900
H288        H  0.51474278  0.12913783  0.32169384     0.07500
C289        C  0.90199639  0.73153069  0.94286681    -0.11600
C290        C  0.89510591  0.72345831  0.99598528     0.05500
C291        C  0.92712051  0.68925028  0.02137445    -0.10400
C292        C  0.96673993  0.66556569  0.99484124    -0.12000
C293        C  0.97467362  0.67488194  0.94215441    -0.01800
C294        C  0.94121218  0.70717188  0.91610382    -0.10900
C295        C  0.85537252  0.75130189  0.02512734     0.05500
H296        H  0.92284659  0.68243685  0.06227327     0.07500
H297        H  0.99234001  0.64124137  0.01593911     0.10900
H298        H  0.94706186  0.71572871  0.87572133     0.11200
H299        H  0.87746039  0.75724618  0.92221127     0.07500
C300        C  0.84827271  0.80336640  0.01738947    -0.11600
C301        C  0.80969663  0.82918822  0.04362617    -0.10900
C302        C  0.77702902  0.80326847  0.07750243    -0.01800
C303        C  0.78500426  0.75154487  0.08629039    -0.12000
C304        C  0.82405910  0.72593624  0.06074380    -0.10400
H305        H  0.87227901  0.82398692  0.99063921     0.07500
H306        H  0.80371945  0.86881582  0.03534665     0.11200
H307        H  0.75992817  0.73054731  0.11171782     0.10900
H308        H  0.82853076  0.68582571  0.06735183     0.07500
C309        C  0.42872072  0.80767907  0.97943130    -0.11600
C310        C  0.39182471  0.78008776  0.00675180     0.05500
C311        C  0.39468370  0.77782991  0.06073660    -0.10400
C312        C  0.43518759  0.80066168  0.08667294    -0.12000
C313        C  0.47385026  0.82549147  0.05893873    -0.01800
C314        C  0.46946897  0.82988687  0.00521281    -0.10900
C315        C  0.35217317  0.75159898  0.97864299     0.05500
H316        H  0.36626270  0.75728679  0.08269583     0.07500
H317        H  0.43774755  0.79638747  0.12803858     0.10900
H318        H  0.49870689  0.84879206  0.98281944     0.11200
H319        H  0.42741876  0.80994642  0.93784025     0.07500
C320        C  0.32468387  0.77454973  0.93876592    -0.11600
C321        C  0.28656784  0.74783525  0.91311059    -0.10900
C322        C  0.27617063  0.69733002  0.92597694    -0.01800
C323        C  0.30495900  0.67376721  0.96444607    -0.12000
C324        C  0.34231114  0.70080471  0.99088143    -0.10400
H325        H  0.33157397  0.81364993  0.92862769     0.07500
H326        H  0.26424043  0.76699538  0.88414131     0.11200
H327        H  0.29677878  0.63523783  0.97589913     0.10900
H328        H  0.36344564  0.68207934  0.02103214     0.07500
loop_ 
_geom_bond_atom_site_label_1 
_geom_bond_atom_site_label_2 
_geom_bond_distance 
_geom_bond_site_symmetry_2 
_ccdc_geom_bond_type 
O1           C16   1.271       .  A
O1           Al9   1.956       .  S
C2           O12   1.270       .  A
C2            O3   1.260       .  A
C2          C313   1.478       .  S
O3           Al5   1.883       .  S
O4            C6   1.271       .  A
O4           Al5   1.959       .  S
Al5          O13   1.952       .  S
Al5          O15   1.883       .  S
Al5          O14   1.766       .  S
C6           O19   1.258       .  A
C6          C233   1.475   1_554  S
O7           C17   1.272       .  A
O7           Al9   1.955       .  S
O8           C21   1.270       .  A
O8          Al18   1.952       .  S
Al9          O22   1.883       .  S
Al9          O19   1.874       .  S
Al9          O14   1.764       .  S
O10          C17   1.259       .  A
O10         Al18   1.877       .  S
O11          C20   1.259       .  A
O11         Al18   1.876       .  S
O12         Al18   1.950       .  S
O13          C20   1.271       .  A
O14         Al18   1.766       .  S
O15          C16   1.259       .  A
C16         C302   1.477       .  S
C17         C273   1.476   1_565  S
C20         C253   1.474       .  S
C21          O22   1.260       .  A
C21         C213   1.474       .  S
O23          C38   1.272       .  A
O23         Al31   1.958       .  S
C24          O34   1.272       .  A
C24          O25   1.260       .  A
C24         C202   1.476   1_545  S
O25         Al27   1.880       .  S
O26          C28   1.270       .  A
O26         Al27   1.951       .  S
Al27         O35   1.955       .  S
Al27         O37   1.879       .  S
Al27         O36   1.766       .  S
C28          O41   1.259       .  A
C28         C153   1.477   1_655  S
O29          C39   1.271       .  A
O29         Al31   1.958       .  S
O30          C43   1.271       .  A
O30         Al40   1.956       .  S
Al31         O44   1.876       .  S
Al31         O41   1.880       .  S
Al31         O36   1.766       .  S
O32          C39   1.258       .  A
O32         Al40   1.875       .  S
O33          C42   1.259       .  A
O33         Al40   1.882       .  S
O34         Al40   1.958       .  S
O35          C42   1.270       .  A
O36         Al40   1.764       .  S
O37          C38   1.261       .  A
C38         C173   1.478       .  S
C39         C222   1.476       .  S
C42         C242   1.477       .  S
C43          O44   1.258       .  A
C43         C133   1.480       .  S
O45          C60   1.270       .  A
O45         Al53   1.948       .  S
C46          O56   1.270       .  A
C46          O47   1.260       .  A
C46         C282   1.473       .  S
O47         Al49   1.887       .  S
O48          C50   1.272       .  A
O48         Al49   1.961       .  S
Al49         O57   1.957       .  S
Al49         O59   1.877       .  S
Al49         O58   1.765       .  S
C50          O63   1.259       .  A
C50          C93   1.477       .  S
O51          C61   1.271       .  A
O51         Al53   1.951       .  S
O52          C65   1.270       .  A
O52         Al62   1.956       .  S
Al53         O66   1.876       .  S
Al53         O63   1.880       .  S
Al53         O58   1.763       .  S
O54          C61   1.260       .  A
O54         Al62   1.879       .  S
O55          C64   1.260       .  A
O55         Al62   1.882       .  S
O56         Al62   1.947       .  S
O57          C64   1.272       .  A
O58         Al62   1.765       .  S
O59          C60   1.258       .  A
C60         C262   1.472       .  S
C61         C162   1.470       .  S
C64         C142   1.472       .  S
C65          O66   1.258       .  A
C65         C122   1.475       .  S
O67          C82   1.271       .  A
O67         Al75   1.956       .  S
C68          O78   1.270       .  A
C68          O69   1.258       .  A
C68         C322   1.473       .  S
O69         Al71   1.884       .  S
O70          C72   1.272       .  A
O70         Al71   1.956       .  S
Al71         O79   1.962       .  S
Al71         O81   1.882       .  S
Al71         O80   1.765       .  S
C72          O85   1.260       .  A
C72         C193   1.478       .  S
O73          C83   1.271       .  A
O73         Al75   1.957       .  S
O74          C87   1.271       .  A
O74         Al84   1.955       .  S
Al75         O88   1.883       .  S
Al75         O85   1.883       .  S
Al75         O80   1.766       .  S
O76          C83   1.260       .  A
O76         Al84   1.882       .  S
O77          C86   1.260       .  A
O77         Al84   1.879       .  S
O78         Al84   1.953       .  S
O79          C86   1.272       .  A
O80         Al84   1.766       .  S
O81          C82   1.259       .  A
C82         C293   1.477   1_455  S
C83         C113   1.475       .  S
C86         C102   1.480   1_556  S
C87          O88   1.260       .  A
C87         C182   1.474       .  S
C89          C90   1.407       .  A
C89          C94   1.401       .  A
C89          H99   1.083       .  S
C90          C95   1.485       .  S
C90          C91   1.404       .  A
C91          C92   1.398       .  A
C91          H96   1.083       .  S
C92          C93   1.405       .  A
C92          H97   1.083       .  S
C93          C94   1.404       .  A
C94          H98   1.083       .  S
C95         C100   1.407       .  A
C95         C104   1.403       .  A
C100        C101   1.402       .  A
C100        H105   1.083       .  S
C101        C102   1.405       .  A
C101        H106   1.083       .  S
C102        C103   1.406       .  A
C103        C104   1.397       .  A
C103        H107   1.083       .  S
C104        H108   1.083       .  S
C109        C110   1.406       .  A
C109        C114   1.401       .  A
C109        H119   1.083       .  S
C110        C115   1.483       .  S
C110        C111   1.404       .  A
C111        C112   1.395       .  A
C111        H116   1.083       .  S
C112        C113   1.404       .  A
C112        H117   1.083       .  S
C113        C114   1.405       .  A
C114        H118   1.083       .  S
C115        C120   1.407       .  A
C115        C124   1.403       .  A
C120        C121   1.402       .  A
C120        H125   1.083       .  S
C121        C122   1.405       .  A
C121        H126   1.083       .  S
C122        C123   1.404       .  A
C123        C124   1.393       .  A
C123        H127   1.083       .  S
C124        H128   1.083       .  S
C129        C130   1.402       .  A
C129        C134   1.397       .  A
C129        H139   1.083       .  S
C130        C135   1.480       .  S
C130        C131   1.406       .  A
C131        C132   1.400       .  A
C131        H136   1.083       .  S
C132        C133   1.404       .  A
C132        H137   1.083       .  S
C133        C134   1.408       .  A
C134        H138   1.083       .  S
C135        C140   1.403       .  A
C135        C144   1.406       .  A
C140        C141   1.398       .  A
C140        H145   1.083       .  S
C141        C142   1.405       .  A
C141        H146   1.083       .  S
C142        C143   1.403       .  A
C143        C144   1.399       .  A
C143        H147   1.084       .  S
C144        H148   1.083       .  S
C149        C150   1.401       .  A
C149        C154   1.395       .  A
C149        H159   1.083       .  S
C150        C155   1.477       .  S
C150        C151   1.405       .  A
C151        C152   1.399       .  A
C151        H156   1.083       .  S
C152        C153   1.405       .  A
C152        H157   1.083       .  S
C153        C154   1.407       .  A
C154        H158   1.083       .  S
C155        C160   1.403       .  A
C155        C164   1.405       .  A
C160        C161   1.396       .  A
C160        H165   1.083       .  S
C161        C162   1.404       .  A
C161        H166   1.083       .  S
C162        C163   1.403       .  A
C163        C164   1.398       .  A
C163        H167   1.084       .  S
C164        H168   1.083       .  S
C169        C170   1.407       .  A
C169        C174   1.401       .  A
C169        H179   1.083   1_655  S
C170        C175   1.483   1_655  S
C170        C171   1.403       .  A
C171        C172   1.395       .  A
C171        H176   1.083       .  S
C172        C173   1.405       .  A
C172        H177   1.083       .  S
C173        C174   1.405       .  A
C174        H178   1.083       .  S
C175        C180   1.406       .  A
C175        C184   1.404   1_455  A
C180        C181   1.400       .  A
C180        H185   1.083       .  S
C181        C182   1.405       .  A
C181        H186   1.083       .  S
C182        C183   1.404       .  A
C183        C184   1.396   1_455  A
C183        H187   1.083   1_455  S
C184        H188   1.083       .  S
C189        C190   1.404       .  A
C189        C194   1.398       .  A
C189        H199   1.083       .  S
C190        C195   1.483   1_455  S
C190        C191   1.406       .  A
C191        C192   1.400       .  A
C191        H196   1.083   1_455  S
C192        C193   1.405       .  A
C192        H197   1.083       .  S
C193        C194   1.406       .  A
C194        H198   1.083       .  S
C195        C200   1.403   1_655  A
C195        C204   1.406       .  A
C200        C201   1.397   1_455  A
C200        H205   1.083       .  S
C201        C202   1.406       .  A
C201        H206   1.083   1_655  S
C202        C203   1.404       .  A
C203        C204   1.400       .  A
C203        H207   1.083       .  S
C204        H208   1.083       .  S
C209        C210   1.406       .  A
C209        C214   1.400       .  A
C209        H219   1.083   1_565  S
C210        C215   1.483   1_565  S
C210        C211   1.404       .  A
C211        C212   1.397       .  A
C211        H216   1.083       .  S
C212        C213   1.405       .  A
C212        H217   1.083       .  S
C213        C214   1.404       .  A
C214        H218   1.083       .  S
C215        C220   1.407       .  A
C215        C224   1.403   1_545  A
C220        C221   1.400       .  A
C220        H225   1.083       .  S
C221        C222   1.404       .  A
C221        H226   1.083       .  S
C222        C223   1.406       .  A
C223        C224   1.396   1_545  A
C223        H227   1.083   1_545  S
C224        H228   1.083       .  S
C229        C230   1.403   1_545  A
C229        C234   1.395   1_545  A
C229        H239   1.083       .  S
C230        C235   1.484   1_565  S
C230        C231   1.408       .  A
C231        C232   1.401       .  A
C231        H236   1.083       .  S
C232        C233   1.404       .  A
C232        H237   1.083       .  S
C233        C234   1.405       .  A
C234        H238   1.083   1_565  S
C235        C240   1.404       .  A
C235        C244   1.406       .  A
C240        C241   1.396       .  A
C240        H245   1.083       .  S
C241        C242   1.405       .  A
C241        H246   1.083       .  S
C242        C243   1.405       .  A
C243        C244   1.400       .  A
C243        H247   1.083       .  S
C244        H248   1.083   1_545  S
C249        C250   1.400       .  A
C249        C254   1.395       .  A
C249        H259   1.083       .  S
C250        C255   1.473       .  S
C250        C251   1.404       .  A
C251        C252   1.398       .  A
C251        H256   1.083       .  S
C252        C253   1.404       .  A
C252        H257   1.083       .  S
C253        C254   1.407       .  A
C254        H258   1.083       .  S
C255        C260   1.401       .  A
C255        C264   1.404       .  A
C260        C261   1.396       .  A
C260        H265   1.083       .  S
C261        C262   1.406       .  A
C261        H266   1.083       .  S
C262        C263   1.403       .  A
C263        C264   1.397       .  A
C263        H267   1.083       .  S
C264        H268   1.083       .  S
C269        C270   1.402       .  A
C269        C274   1.396       .  A
C269        H279   1.083       .  S
C270        C275   1.480       .  S
C270        C271   1.406       .  A
C271        C272   1.399       .  A
C271        H276   1.083       .  S
C272        C273   1.404       .  A
C272        H277   1.083       .  S
C273        C274   1.407       .  A
C274        H278   1.083   1_545  S
C275        C280   1.404       .  A
C275        C284   1.404       .  A
C280        C281   1.399       .  A
C280        H285   1.083       .  S
C281        C282   1.405       .  A
C281        H286   1.083       .  S
C282        C283   1.403       .  A
C283        C284   1.397       .  A
C283        H287   1.083       .  S
C284        H288   1.083       .  S
C289        C290   1.407       .  A
C289        C294   1.401       .  A
C289        H299   1.083       .  S
C290        C295   1.486   1_556  S
C290        C291   1.404   1_556  A
C291        C292   1.398   1_554  A
C291        H296   1.083       .  S
C292        C293   1.405       .  A
C292        H297   1.083   1_556  S
C293        C294   1.404       .  A
C294        H298   1.083       .  S
C295        C300   1.407       .  A
C295        C304   1.405       .  A
C300        C301   1.400       .  A
C300        H305   1.083   1_554  S
C301        C302   1.404       .  A
C301        H306   1.083       .  S
C302        C303   1.405       .  A
C303        C304   1.398       .  A
C303        H307   1.083       .  S
C304        H308   1.083       .  S
C309        C310   1.403   1_556  A
C309        C314   1.396   1_556  A
C309        H319   1.083       .  S
C310        C315   1.482   1_554  S
C310        C311   1.406       .  A
C311        C312   1.400       .  A
C311        H316   1.083       .  S
C312        C313   1.405       .  A
C312        H317   1.083       .  S
C313        C314   1.406       .  A
C314        H318   1.083   1_554  S
C315        C320   1.405       .  A
C315        C324   1.406       .  A
C320        C321   1.398       .  A
C320        H325   1.083       .  S
C321        C322   1.405       .  A
C321        H326   1.083       .  S
C322        C323   1.403       .  A
C323        C324   1.398       .  A
C323        H327   1.084       .  S
C324        H328   1.083   1_556  S
