geometry optimzed in LAMMPS
_audit_creation_date              2020-11-30 
_audit_creation_method            'lammps2cif' 
_symmetry_space_group_name_H-M    'P1' 
_symmetry_Int_Tables_number       1 
_symmetry_cell_setting            triclinic 
loop_ 
_symmetry_equiv_pos_as_xyz 
  x,y,z 
_cell_length_a                    26.41158202 
_cell_length_b                    26.49891666431116 
_cell_length_c                    26.51638478791445 
_cell_angle_alpha                 89.87857062666724 
_cell_angle_beta                  89.89559065997598 
_cell_angle_gamma                 90.25083790305145 
loop_ 
_atom_site_label 
_atom_site_type_symbol 
_atom_site_fract_x 
_atom_site_fract_y 
_atom_site_fract_z 
_atom_site_charge 
O1          O  0.68861546  0.80326867  0.11101712    -0.85600
O2          O  0.58935531  0.77729861  0.12922989    -0.82600
C3          C  0.58101124  0.77877258  0.17646326     0.97900
O4          O  0.58553317  0.81964762  0.19993621    -0.82700
O5          O  0.61764721  0.91555022  0.22138797    -0.85300
C6          C  0.66570574  0.91434716  0.22693698     1.02400
O7          O  0.69381217  0.90414912  0.19006179    -0.78100
O8          O  0.72594667  0.87473634  0.09496953    -0.78300
C9          C  0.72762671  0.82682724  0.09778894     1.02400
O10         O  0.65847098  0.86666994  0.02517348    -0.85600
O11         O  0.56111566  0.84700554  0.05070233    -0.82600
C12         C  0.51956130  0.84786099  0.07334738     0.97900
O13         O  0.51924536  0.85358348  0.12094107    -0.82700
O14         O  0.55566377  0.94843820  0.13447232    -0.85300
C15         C  0.58161536  0.98572540  0.14703645     1.02400
O16         O  0.62940997  0.98099840  0.14950697    -0.78100
O17         O  0.65309719  0.94390661  0.05437240    -0.78200
C18         C  0.65978335  0.91428250  0.01800490     1.02300
Cr19       Cr  0.62455730  0.82665056  0.08200952     1.93700
Cr20       Cr  0.57293756  0.88421831  0.16644949     1.93200
Cr21       Cr  0.67229317  0.92285926  0.12232077     1.39100
O22         O  0.62334933  0.87731529  0.12402934    -1.23300
O23         O  0.81459499  0.19518471  0.58849746    -0.85600
O24         O  0.91028988  0.22335332  0.61772344    -0.82600
C25         C  0.90816817  0.23007845  0.66514381     0.97900
O26         O  0.89757538  0.19338446  0.69363072    -0.82700
O27         O  0.86914349  0.09644641  0.72632369    -0.85300
C28         C  0.82103658  0.09420498  0.72467468     1.02400
O29         O  0.79912210  0.10346787  0.68394984    -0.78100
O30         O  0.77776877  0.12099583  0.58536308    -0.78300
C31         C  0.77556311  0.16875558  0.58180763     1.02400
O32         O  0.85283216  0.12077676  0.51962703    -0.85600
O33         O  0.94945371  0.14269762  0.55646724    -0.82600
C34         C  0.98616066  0.14901123  0.58606926     0.97900
O35         O  0.97807423  0.15176385  0.63326395    -0.82700
O36         O  0.94502391  0.05791864  0.65914663    -0.85300
C37         C  0.91745368  0.01942353  0.66279193     1.02400
O38         O  0.86980729  0.02323044  0.65752005    -0.78100
O39         O  0.85638254  0.04885869  0.55912069    -0.78200
C40         C  0.84915480  0.07288663  0.51908464     1.02300
Cr41       Cr  0.88171074  0.16736705  0.57396028     1.93700
Cr42       Cr  0.91919375  0.12506858  0.67464421     1.93200
Cr43       Cr  0.82898511  0.07722264  0.62169150     1.39100
O44         O  0.87664720  0.12330966  0.62348833    -1.23300
O45         O  0.41206134  0.31694088  0.30206489    -0.85600
O46         O  0.38130628  0.41369550  0.27851329    -0.82600
C47         C  0.33344724  0.41106304  0.27283621     0.97900
O48         O  0.30642575  0.39434720  0.30814447    -0.82700
O49         O  0.27237422  0.36620968  0.40357560    -0.85300
C50         C  0.27392445  0.31814456  0.40390547     1.02400
O51         O  0.31454457  0.29672682  0.39276466    -0.78100
O52         O  0.41395521  0.27716319  0.37466268    -0.78300
C53         C  0.41898480  0.27708270  0.32687709     1.02400
O54         O  0.47946952  0.35161640  0.37930657    -0.85600
O55         O  0.44161417  0.44737364  0.36427955    -0.82600
C56         C  0.41413396  0.48345500  0.35121057     0.97900
O57         O  0.36633168  0.47687244  0.34914006    -0.82700
O58         O  0.33961658  0.44143928  0.44420633    -0.85300
C59         C  0.33463868  0.41212182  0.48129116     1.02400
O60         O  0.33984691  0.36474946  0.47561936    -0.78100
O61         O  0.43866110  0.35362462  0.45042634    -0.78200
C62         C  0.47929761  0.34743411  0.42707249     1.02300
Cr63       Cr  0.42543691  0.38221106  0.33373370     1.93700
Cr64       Cr  0.32428690  0.41704963  0.37608267     1.93200
Cr65       Cr  0.37670897  0.32597929  0.42063302     1.39100
O66         O  0.37529051  0.37478581  0.37668105    -1.23300
O67         O  0.05074547  0.56128196  0.85583829    -0.85600
O68         O  0.02592146  0.65949198  0.87108166    -0.82600
C69         C  0.02126813  0.66376950  0.91868970     0.97900
O70         O  0.05912447  0.65786359  0.94665687    -0.82700
O71         O  0.15460078  0.63298458  0.97900263    -0.85300
C72         C  0.15493911  0.58560400  0.98637619     1.02400
O73         O  0.14558454  0.55627559  0.95019484    -0.78100
O74         O  0.12237887  0.52121537  0.85270241    -0.78300
C75         C  0.07441515  0.52140763  0.84727101     1.02400
O76         O  0.12480927  0.58727268  0.77888186    -0.85600
O77         O  0.10827470  0.68700133  0.80220211    -0.82600
C78         C  0.09750338  0.72698066  0.82482759     0.97900
O79         O  0.09787405  0.72703177  0.87277468    -0.82700
O80         O  0.19431543  0.69446959  0.89902465    -0.85300
C81         C  0.23194328  0.66686958  0.90778114     1.02400
O82         O  0.22585483  0.61935124  0.91104586    -0.78100
O83         O  0.19802595  0.59208414  0.81670105    -0.78200
C84         C  0.17265801  0.58226977  0.77813884     1.02300
Cr85       Cr  0.08039125  0.62399194  0.83001342     1.93700
Cr86       Cr  0.12658868  0.67468582  0.92143203     1.93200
Cr87       Cr  0.16966729  0.57527927  0.88266701     1.39100
O88         O  0.12535339  0.62438939  0.87836464    -1.23300
C89         C  0.17388792  0.56362565  0.03459321     0.01100
C90         C  0.15926651  0.51403239  0.04862524     0.03900
C91         C  0.18738093  0.48708322  0.08472898    -0.12100
C92         C  0.22962344  0.50966218  0.10788751     0.23200
C93         C  0.24213178  0.56017165  0.09693241    -0.12700
C94         C  0.21336835  0.58778959  0.06184956     0.04600
C95         C  0.25644530  0.48299276  0.14913514     0.27100
C96         C  0.24053378  0.49093465  0.19902639    -0.13400
C97         C  0.26659994  0.46832910  0.23910409     0.05200
C98         C  0.30768033  0.43531418  0.22948690    -0.09400
C99         C  0.32337340  0.42703195  0.17926350     0.06000
C100        C  0.29807435  0.45135122  0.13916570    -0.13700
Br101      Br  0.29965412  0.59106770  0.12984874    -0.05800
Br102      Br  0.09829739  0.48405146  0.02157483    -0.00200
Br103      Br  0.24730309  0.48657869  0.30714041     0.00300
Br104      Br  0.32028597  0.44184551  0.07056498    -0.04100
Br105      Br  0.22845247  0.65881225  0.05362288     0.00400
Br106      Br  0.16835183  0.41896134  0.10270669    -0.03400
Br107      Br  0.18274842  0.53355453  0.21226563    -0.04300
Br108      Br  0.37808207  0.38123323  0.16512295    -0.00300
C109        C  0.31757543  0.43361366  0.52989502     0.01100
C110        C  0.27196787  0.41648921  0.55212688     0.03900
C111        C  0.25019461  0.44302904  0.59236083    -0.12100
C112        C  0.27504771  0.48544132  0.61240354     0.23200
C113        C  0.32224654  0.50076827  0.59279755    -0.12700
C114        C  0.34288364  0.47576167  0.55072942     0.04600
C115        C  0.25152369  0.51279551  0.65495399     0.27100
C116        C  0.22140548  0.55567630  0.64594964    -0.13400
C117        C  0.19531754  0.57876422  0.68607328     0.05200
C118        C  0.19915602  0.55876435  0.73516076    -0.09400
C119        C  0.23008739  0.51607603  0.74406193     0.06000
C120        C  0.25626055  0.49340244  0.70404983    -0.13700
Br121      Br  0.35840897  0.55572757  0.62407964    -0.05800
Br122      Br  0.23685164  0.35857044  0.52646285    -0.00200
Br123      Br  0.15634921  0.63890600  0.67420453     0.00300
Br124      Br  0.29793967  0.43477286  0.71595222    -0.04100
Br125      Br  0.40597448  0.49912082  0.52197527     0.00400
Br126      Br  0.18526525  0.42225534  0.61939936    -0.03400
Br127      Br  0.21565993  0.58219060  0.57843408    -0.04300
Br128      Br  0.23537350  0.48638186  0.81056392    -0.00300
C129        C  0.52391598  0.32833914  0.45537149     0.01100
C130        C  0.51647054  0.29258034  0.49494372     0.03900
C131        C  0.55819176  0.26966690  0.51815917    -0.12100
C132        C  0.60751820  0.28219605  0.50285776     0.23200
C133        C  0.61549565  0.31895434  0.46521546    -0.12700
C134        C  0.57385134  0.34188052  0.44125071     0.04600
C135        C  0.65045122  0.25319320  0.52373622     0.27100
C136        C  0.67240721  0.26699209  0.57004933    -0.13400
C137        C  0.71161013  0.23767547  0.59065199     0.05200
C138        C  0.72882306  0.19429132  0.56505170    -0.09400
C139        C  0.70511427  0.17956414  0.51968058     0.06000
C140        C  0.66639088  0.20914670  0.49895826    -0.13700
Br141      Br  0.68379167  0.33659207  0.44593484    -0.05800
Br142      Br  0.44973778  0.26960999  0.51536638    -0.00200
Br143      Br  0.74032148  0.25591379  0.65496596     0.00300
Br144      Br  0.63521319  0.18957508  0.43611725    -0.04100
Br145      Br  0.58586618  0.39197017  0.38961839     0.00400
Br146      Br  0.54811492  0.21839287  0.56935982    -0.03400
Br147      Br  0.64828796  0.32590110  0.60511809    -0.04300
Br148      Br  0.72650024  0.12037007  0.48386758    -0.00300
C149        C  0.23191783  0.28692056  0.42537168     0.01100
C150        C  0.24357308  0.24680849  0.45923937     0.03900
C151        C  0.20466136  0.22002295  0.48380458    -0.12100
C152        C  0.15396993  0.23424376  0.47726737     0.23200
C153        C  0.14183779  0.27345029  0.44333132    -0.12700
C154        C  0.18061291  0.29929125  0.41690568     0.04600
C155        C  0.11395981  0.20818052  0.50723778     0.27100
C156        C  0.08606527  0.16830627  0.48583294    -0.13400
C157        C  0.04790651  0.14401372  0.51407200     0.05200
C158        C  0.03703290  0.15987644  0.56391127    -0.09400
C159        C  0.07095491  0.19371411  0.58776577     0.06000
C160        C  0.10744375  0.21970105  0.55877303    -0.13700
Br161      Br  0.07201913  0.29230396  0.43408461    -0.05800
Br162      Br  0.31249984  0.23131253  0.47841720    -0.00200
Br163      Br  0.01342217  0.08632830  0.48557539     0.00300
Br164      Br  0.14743943  0.27238913  0.58944520    -0.04100
Br165      Br  0.16316115  0.35120638  0.36895127     0.00400
Br166      Br  0.22061793  0.16416989  0.52809502    -0.03400
Br167      Br  0.10022244  0.14719750  0.41766391    -0.04300
Br168      Br  0.07003594  0.20378369  0.66002419    -0.00300
C169        C  0.04618970  0.47837686  0.82388422     0.01100
C170        C  0.00678148  0.48854055  0.78862475     0.03900
C171        C  0.98005998  0.44876007  0.76567078    -0.12100
C172        C  0.99385638  0.39853871  0.77497404     0.23200
C173        C  0.03296490  0.38791179  0.80949807    -0.12700
C174        C  0.05869276  0.42758308  0.83437148     0.04600
C175        C  0.96938746  0.35745917  0.74537347     0.26700
C176        C  0.92501744  0.33370341  0.76306310    -0.13400
C177        C  0.90263424  0.29427742  0.73512159     0.05200
C178        C  0.92396886  0.27895685  0.68850053    -0.09400
C179        C  0.96513576  0.30715889  0.66831800     0.06000
C180        C  0.98855405  0.34504391  0.69743270    -0.13700
Br181      Br  0.05141493  0.31869418  0.82195969    -0.05800
Br182      Br  0.99113190  0.55644777  0.76655452    -0.00200
Br183      Br  0.84092026  0.26356364  0.75988286     0.00300
Br184      Br  0.04757870  0.38018202  0.67195113    -0.04100
Br185      Br  0.11008756  0.41177919  0.88342553     0.00400
Br186      Br  0.92466678  0.46269396  0.72010184    -0.03400
Br187      Br  0.89461008  0.35614019  0.82528604    -0.04300
Br188      Br  0.99038531  0.29557311  0.60092274    -0.00300
C189        C  0.94178434  0.97133565  0.67795601     0.01100
C190        C  0.92047918  0.94126319  0.71673287     0.03900
C191        C  0.94849622  0.90145261  0.73781113    -0.12100
C192        C  0.99825373  0.89200087  0.72126980     0.23200
C193        C  0.01890625  0.92040956  0.68134891    -0.12700
C194        C  0.99048543  0.95930157  0.65906279     0.04600
C195        C  0.02807573  0.85097377  0.74497944     0.27100
C196        C  0.05843134  0.86074446  0.78746136    -0.13400
C197        C  0.08308302  0.82083551  0.81261330     0.05200
C198        C  0.07736806  0.77056768  0.79528175    -0.09400
C199        C  0.04763368  0.76149440  0.75132372     0.06000
C200        C  0.02392901  0.80171272  0.72619161    -0.13700
Br201      Br  0.08673579  0.90648387  0.65819002    -0.05800
Br202      Br  0.85459982  0.95599810  0.74433285    -0.00200
Br203      Br  0.12428793  0.83603896  0.87072732     0.00300
Br204      Br  0.98382348  0.78951626  0.66643130    -0.04100
Br205      Br  0.01829370  0.99502182  0.60168494     0.00400
Br206      Br  0.91911830  0.86041774  0.79046518    -0.03400
Br207      Br  0.06542701  0.92920810  0.81121913    -0.04300
Br208      Br  0.03300755  0.69405882  0.72713755    -0.00300
C209        C  0.69104927  0.93092450  0.27410840     0.01100
C210        C  0.67804322  0.97746023  0.29651900     0.03900
C211        C  0.71019435  0.99975762  0.33244499    -0.12100
C212        C  0.75454685  0.97495865  0.34799740     0.23200
C213        C  0.76677047  0.92766257  0.32735053    -0.12700
C214        C  0.73512821  0.90561285  0.29068506     0.04600
C215        C  0.78409583  0.99590678  0.39082753     0.27100
C216        C  0.82178534  0.03292890  0.38305611    -0.13400
C217        C  0.84346820  0.05836895  0.42458607     0.05200
C218        C  0.82927894  0.04501655  0.47437710    -0.09400
C219        C  0.79236834  0.00631993  0.48168048     0.06000
C220        C  0.77015145  0.98213759  0.44007518    -0.13700
Br221      Br  0.82740217  0.89367659  0.34898488    -0.05800
Br222      Br  0.61729927  0.01238503  0.27767317    -0.00200
Br223      Br  0.89119123  0.11236750  0.41253783     0.00300
Br224      Br  0.71815227  0.93134799  0.45006471    -0.04100
Br225      Br  0.75151795  0.83971415  0.26444163     0.00400
Br226      Br  0.69424787  0.06531646  0.35969070    -0.03400
Br227      Br  0.84321424  0.04862123  0.31524743    -0.04300
Br228      Br  0.76587206  0.98985230  0.54789189    -0.00300
C229        C  0.79041150  0.07404473  0.76760312     0.01100
C230        C  0.74930159  0.04041465  0.75787052     0.03900
C231        C  0.72390957  0.01637284  0.79795337    -0.12100
C232        C  0.73875058  0.02540738  0.84789992     0.23200
C233        C  0.77747883  0.06065657  0.85811946    -0.12700
C234        C  0.80340685  0.08484784  0.81817052     0.04600
C235        C  0.71596408  0.99483802  0.88918301     0.27100
C236        C  0.67048050  0.00986063  0.91232022    -0.13400
C237        C  0.64932041  0.98048723  0.95141817     0.05200
C238        C  0.67450669  0.93679566  0.96882188    -0.09400
C239        C  0.71890447  0.92072838  0.94386403     0.06000
C240        C  0.73909115  0.94934708  0.90380674    -0.13700
Br241      Br  0.79510780  0.07504982  0.92717945    -0.05800
Br242      Br  0.72903404  0.02238786  0.69002884    -0.00200
Br243      Br  0.58519659  0.99975212  0.98058831     0.00300
Br244      Br  0.79933494  0.92687210  0.86936881    -0.04100
Br245      Br  0.85573440  0.13352066  0.83329018     0.00400
Br246      Br  0.66974574  0.96885710  0.78474330    -0.03400
Br247      Br  0.63797726  0.07131858  0.89099512    -0.04300
Br248      Br  0.75508268  0.86201968  0.96635071    -0.00300
C249        C  0.43950734  0.52923999  0.33052887     0.01100
C250        C  0.42147443  0.57832831  0.34047893     0.03900
C251        C  0.44676897  0.62069646  0.31979299    -0.12100
C252        C  0.49029856  0.61417751  0.28963385     0.23200
C253        C  0.50907891  0.56554202  0.28081236    -0.12700
C254        C  0.48299394  0.52320749  0.29943147     0.04600
C255        C  0.51318180  0.65721411  0.26167745     0.27100
C256        C  0.49811989  0.66622058  0.21159413    -0.13400
C257        C  0.52160833  0.70449185  0.18297977     0.05200
C258        C  0.56098063  0.73401877  0.20418987    -0.09400
C259        C  0.57651611  0.72417555  0.25443236     0.06000
C260        C  0.55263451  0.68589263  0.28295748    -0.13700
Br261      Br  0.57022936  0.55717745  0.24146687    -0.05800
Br262      Br  0.36233291  0.58784534  0.38206905    -0.00200
Br263      Br  0.49661755  0.71767246  0.11593080     0.00300
Br264      Br  0.57419945  0.67191616  0.35106996    -0.04100
Br265      Br  0.50466680  0.45738731  0.27634492     0.00400
Br266      Br  0.42185847  0.68781995  0.33205740    -0.03400
Br267      Br  0.44496045  0.62541013  0.18226083    -0.04300
Br268      Br  0.63156633  0.76176350  0.28437481    -0.00300
C269        C  0.43827321  0.23220290  0.29970904     0.01100
C270        C  0.48138878  0.20642510  0.31779090     0.03900
C271        C  0.50460198  0.16920714  0.28815557    -0.12100
C272        C  0.48488970  0.15700863  0.24046615     0.23200
C273        C  0.44143181  0.18172194  0.22254845    -0.12700
C274        C  0.41799873  0.21907203  0.25210091     0.04600
C275        C  0.50699788  0.11439504  0.21193864     0.27100
C276        C  0.54846946  0.12187591  0.17919946    -0.13400
C277        C  0.57221129  0.08015793  0.15629389     0.05200
C278        C  0.55482333  0.03076388  0.16668606    -0.09400
C279        C  0.51225616  0.02376720  0.19900223     0.06000
C280        C  0.48838282  0.06551908  0.22093812    -0.13700
Br281      Br  0.41417990  0.16392813  0.15748323    -0.05800
Br282      Br  0.51111510  0.22285878  0.38192998    -0.00200
Br283      Br  0.62760286  0.09094165  0.10999763     0.00300
Br284      Br  0.43115479  0.05590959  0.26569986    -0.04100
Br285      Br  0.35676443  0.25045874  0.22796971     0.00400
Br286      Br  0.56401272  0.13487510  0.31269401    -0.03400
Br287      Br  0.57310705  0.18937096  0.16694309    -0.04300
Br288      Br  0.48867703  0.95721251  0.21881407    -0.00300
C289        C  0.77175944  0.79801738  0.07799566     0.01100
C290        C  0.82172184  0.81642977  0.08400914     0.03900
C291        C  0.86227791  0.79312625  0.05848892    -0.12100
C292        C  0.85336424  0.75095932  0.02741720     0.23200
C293        C  0.80421748  0.73114399  0.02289670    -0.12700
C294        C  0.76350336  0.75419767  0.04799022     0.04600
C295        C  0.89530035  0.72739640  0.99858629     0.27100
C296        C  0.90780226  0.74545857  0.95016341    -0.13400
C297        C  0.94656377  0.72238181  0.92209204     0.05200
C298        C  0.97346336  0.68106515  0.94250718    -0.09400
C299        C  0.95902917  0.66159442  0.99021288     0.06000
C300        C  0.92033944  0.68492436  0.01817797    -0.13700
Br301      Br  0.79278782  0.67314347  0.98010412    -0.05800
Br302      Br  0.83524161  0.87253033  0.12835344    -0.00200
Br303      Br  0.96377480  0.75000056  0.85703598     0.00300
Br304      Br  0.90162647  0.65916258  0.08376239    -0.04100
Br305      Br  0.69649089  0.72649751  0.03665591     0.00400
Br306      Br  0.93016569  0.81937287  0.06499271    -0.03400
Br307      Br  0.87226203  0.80269936  0.92272180    -0.04300
Br308      Br  0.99117532  0.60197377  0.01716098    -0.00300
C309        C  0.47252322  0.83590804  0.04396057     0.01100
C310        C  0.42468703  0.82921243  0.06766398     0.03900
C311        C  0.38512623  0.80442632  0.04176353    -0.12100
C312        C  0.39386108  0.78393890  0.99363115     0.23200
C313        C  0.43914284  0.79503503  0.96811734    -0.12700
C314        C  0.47668760  0.82418359  0.99166763     0.04600
C315        C  0.35491005  0.75226698  0.96866166     0.27100
C316        C  0.35176845  0.70023492  0.97927110    -0.13400
C317        C  0.31578448  0.66976552  0.95441605     0.05200
C318        C  0.28092188  0.69210311  0.92045022    -0.09400
C319        C  0.28835027  0.74321511  0.90604090     0.06000
C320        C  0.32367675  0.77350569  0.93153188    -0.13700
Br321      Br  0.45029828  0.76894881  0.90096481    -0.05800
Br322      Br  0.41112622  0.85507451  0.13434248    -0.00200
Br323      Br  0.31613064  0.59788250  0.96741281     0.00300
Br324      Br  0.32773182  0.84497768  0.91749375    -0.04100
Br325      Br  0.53067746  0.85078786  0.94956904     0.00400
Br326      Br  0.31853027  0.79867808  0.07134329    -0.03400
Br327      Br  0.39531645  0.67129807  0.02992992    -0.04300
Br328      Br  0.25291362  0.77175921  0.84900622    -0.00300
loop_ 
_geom_bond_atom_site_label_1 
_geom_bond_atom_site_label_2 
_geom_bond_distance 
_geom_bond_site_symmetry_2 
_ccdc_geom_bond_type 
O1          Cr19   1.962       .  S
O1            C9   1.252       .  A
O2          Cr19   2.030       .  S
O2            C3   1.272       .  A
C3            O4   1.256       .  A
C3          C258   1.489       .  S
O4          Cr20   1.956       .  S
O5          Cr20   2.052       .  S
O5            C6   1.279       .  A
C6            O7   1.257       .  A
C6          C209   1.486       .  S
O7          Cr21   1.949       .  S
O8          Cr21   2.044       .  S
O8            C9   1.273       .  A
C9          C289   1.491       .  S
O10         Cr19   2.044       .  S
O10          C18   1.276       .  A
O11         Cr19   1.949       .  S
O11          C12   1.250       .  A
C12          O13   1.271       .  A
C12         C309   1.501       .  S
O13         Cr20   2.031       .  S
O14         Cr20   1.956       .  S
O14          C15   1.246       .  A
C15          O16   1.271       .  A
C15         C278   1.485   1_565  S
O16         Cr21   2.048       .  S
O17         Cr21   1.953       .  S
O17          C18   1.257       .  A
C18         C238   1.483   1_554  S
Cr19         O22   1.747       .  S
Cr20         O22   1.752       .  S
Cr21         O22   1.765       .  S
O23         Cr41   1.961       .  S
O23          C31   1.257       .  A
O24         Cr41   2.029       .  S
O24          C25   1.272       .  A
C25          O26   1.260       .  A
C25         C178   1.495       .  S
O26         Cr42   1.967       .  S
O27         Cr42   2.045       .  S
O27          C28   1.273       .  A
C28          O29   1.251       .  A
C28         C229   1.492       .  S
O29         Cr43   1.959       .  S
O30         Cr43   2.029       .  S
O30          C31   1.270       .  A
C31         C138   1.479       .  S
O32         Cr41   2.046       .  S
O32          C40   1.272       .  A
O33         Cr41   1.963       .  S
O33          C34   1.259       .  A
C34          O35   1.271       .  A
C34         C158   1.492   1_655  S
O35         Cr42   2.026       .  S
O36         Cr42   1.953       .  S
O36          C37   1.254       .  A
C37          O38   1.271       .  A
C37         C189   1.485   1_545  S
O38         Cr43   2.031       .  S
O39         Cr43   1.961       .  S
O39          C40   1.252       .  A
C40         C218   1.493       .  S
Cr41         O44   1.760       .  S
Cr42         O44   1.764       .  S
Cr43         O44   1.751       .  S
O45         Cr63   1.955       .  S
O45          C53   1.257       .  A
O46         Cr63   2.051       .  S
O46          C47   1.275       .  A
C47          O48   1.255       .  A
C47          C98   1.484       .  S
O48         Cr64   1.958       .  S
O49         Cr64   2.050       .  S
O49          C50   1.275       .  A
C50          O51   1.251       .  A
C50         C149   1.492       .  S
O51         Cr65   1.959       .  S
O52         Cr65   2.035       .  S
O52          C53   1.274       .  A
C53         C269   1.483       .  S
O54         Cr63   2.041       .  S
O54          C62   1.271       .  A
O55         Cr63   1.955       .  S
O55          C56   1.252       .  A
C56          O57   1.275       .  A
C56         C249   1.487       .  S
O57         Cr64   2.058       .  S
O58         Cr64   1.962       .  S
O58          C59   1.258       .  A
C59          O60   1.273       .  A
C59         C109   1.480       .  S
O60         Cr65   2.034       .  S
O61         Cr65   1.958       .  S
O61          C62   1.250       .  A
C62         C129   1.488       .  S
Cr63         O66   1.755       .  S
Cr64         O66   1.756       .  S
Cr65         O66   1.740       .  S
O67         Cr85   1.956       .  S
O67          C75   1.251       .  A
O68         Cr85   2.037       .  S
O68          C69   1.273       .  A
C69          O70   1.256       .  A
C69         C298   1.485   1_455  S
O70         Cr86   1.952       .  S
O71         Cr86   2.026       .  S
O71          C72   1.270       .  A
C72          O73   1.260       .  A
C72          C89   1.492   1_556  S
O73         Cr87   1.963       .  S
O74         Cr87   2.058       .  S
O74          C75   1.275       .  A
C75         C169   1.496       .  S
O76         Cr85   2.042       .  S
O76          C84   1.271       .  A
O77         Cr85   1.964       .  S
O77          C78   1.252       .  A
C78          O79   1.271       .  A
C78         C198   1.495       .  S
O79         Cr86   2.042       .  S
O80         Cr86   1.953       .  S
O80          C81   1.258       .  A
C81          O82   1.271       .  A
C81         C318   1.493       .  S
O82         Cr87   2.031       .  S
O83         Cr87   1.951       .  S
O83          C84   1.251       .  A
C84         C118   1.477       .  S
Cr85         O88   1.749       .  S
Cr86         O88   1.757       .  S
Cr87         O88   1.758       .  S
C89          C90   1.417       .  A
C89          C94   1.421       .  A
C90          C91   1.408       .  A
C90        Br102   1.932       .  S
C91          C92   1.406       .  A
C91        Br106   1.930       .  S
C92          C95   1.484       .  S
C92          C93   1.407       .  A
C93          C94   1.408       .  A
C93        Br101   1.933       .  S
C94        Br105   1.934       .  S
C95          C96   1.404       .  A
C95         C100   1.411       .  A
C96          C97   1.402       .  A
C96        Br107   1.935       .  S
C97          C98   1.420       .  A
C97        Br103   1.937       .  S
C98          C99   1.412       .  A
C99         C100   1.413       .  A
C99        Br108   1.928       .  S
C100       Br104   1.928       .  S
C109        C110   1.413       .  A
C109        C114   1.413       .  A
C110        C111   1.403       .  A
C110       Br122   1.917       .  S
C111        C112   1.405       .  A
C111       Br126   1.935       .  S
C112        C115   1.480       .  S
C112        C113   1.408       .  A
C113        C114   1.409       .  A
C113       Br121   1.928       .  S
C114       Br125   1.930       .  S
C115        C116   1.410       .  A
C115        C120   1.405       .  A
C116        C117   1.409       .  A
C116       Br127   1.928       .  S
C117        C118   1.408       .  A
C117       Br123   1.927       .  S
C118        C119   1.418       .  A
C119        C120   1.403       .  A
C119       Br128   1.935       .  S
C120       Br124   1.934       .  S
C129        C130   1.425       .  A
C129        C134   1.415       .  A
C130        C131   1.403       .  A
C130       Br142   1.938       .  S
C131        C132   1.402       .  A
C131       Br146   1.936       .  S
C132        C135   1.480       .  S
C132        C133   1.408       .  A
C133        C134   1.410       .  A
C133       Br141   1.929       .  S
C134       Br145   1.930       .  S
C135        C136   1.407       .  A
C135        C140   1.406       .  A
C136        C137   1.408       .  A
C136       Br147   1.929       .  S
C137        C138   1.413       .  A
C137       Br143   1.929       .  S
C138        C139   1.412       .  A
C139        C140   1.403       .  A
C139       Br148   1.922       .  S
C140       Br144   1.931       .  S
C149        C150   1.425       .  A
C149        C154   1.414       .  A
C150        C151   1.405       .  A
C150       Br162   1.937       .  S
C151        C152   1.403       .  A
C151       Br166   1.936       .  S
C152        C155   1.488       .  S
C152        C153   1.411       .  A
C153        C154   1.413       .  A
C153       Br161   1.929       .  S
C154       Br165   1.929       .  S
C155        C156   1.407       .  A
C155        C160   1.411       .  A
C156        C157   1.407       .  A
C156       Br167   1.930       .  S
C157        C158   1.417       .  A
C157       Br163   1.932       .  S
C158        C159   1.416       .  A
C159        C160   1.408       .  A
C159       Br168   1.935       .  S
C160       Br164   1.929       .  S
C169        C170   1.427       .  A
C169        C174   1.414       .  A
C170        C171   1.406   1_455  A
C170       Br182   1.938   1_455  S
C171        C172   1.403       .  A
C171       Br186   1.935       .  S
C172        C175   1.489       .  S
C172        C173   1.410   1_655  A
C173        C174   1.414       .  A
C173       Br181   1.928       .  S
C174       Br185   1.928       .  S
C175        C176   1.407       .  A
C175        C180   1.408       .  A
C176        C177   1.410       .  A
C176       Br187   1.930       .  S
C177        C178   1.419       .  A
C177       Br183   1.932       .  S
C178        C179   1.420       .  A
C179        C180   1.409       .  A
C179       Br188   1.932       .  S
C180       Br184   1.933   1_655  S
C189        C190   1.414       .  A
C189        C194   1.417       .  A
C190        C191   1.407       .  A
C190       Br202   1.928       .  S
C191        C192   1.408       .  A
C191       Br206   1.928       .  S
C192        C195   1.485   1_655  S
C192        C193   1.406   1_655  A
C193        C194   1.407   1_455  A
C193       Br201   1.930       .  S
C194       Br205   1.932   1_655  S
C195        C196   1.408       .  A
C195        C200   1.402       .  A
C196        C197   1.411       .  A
C196       Br207   1.930       .  S
C197        C198   1.418       .  A
C197       Br203   1.930       .  S
C198        C199   1.427       .  A
C199        C200   1.406       .  A
C199       Br208   1.937       .  S
C200       Br204   1.935   1_455  S
C209        C210   1.413       .  A
C209        C214   1.416       .  A
C210        C211   1.407       .  A
C210       Br222   1.922   1_565  S
C211        C212   1.408       .  A
C211       Br226   1.931   1_565  S
C212        C215   1.486       .  S
C212        C213   1.407       .  A
C213        C214   1.409       .  A
C213       Br221   1.928       .  S
C214       Br225   1.932       .  S
C215        C216   1.409   1_565  A
C215        C220   1.403       .  A
C216        C217   1.413       .  A
C216       Br227   1.928       .  S
C217        C218   1.416       .  A
C217       Br223   1.928       .  S
C218        C219   1.424       .  A
C219        C220   1.405   1_545  A
C219       Br228   1.937   1_545  S
C220       Br224   1.936       .  S
C229        C230   1.426       .  A
C229        C234   1.414       .  A
C230        C231   1.406       .  A
C230       Br242   1.938       .  S
C231        C232   1.403       .  A
C231       Br246   1.935   1_545  S
C232        C235   1.485   1_545  S
C232        C233   1.409       .  A
C233        C234   1.412       .  A
C233       Br241   1.929       .  S
C234       Br245   1.929       .  S
C235        C236   1.407   1_565  A
C235        C240   1.408       .  A
C236        C237   1.408   1_545  A
C236       Br247   1.928       .  S
C237        C238   1.415       .  A
C237       Br243   1.932       .  S
C238        C239   1.413       .  A
C239        C240   1.407       .  A
C239       Br248   1.924       .  S
C240       Br244   1.930       .  S
C249        C250   1.412       .  A
C249        C254   1.422       .  A
C250        C251   1.413       .  A
C250       Br262   1.928       .  S
C251        C252   1.411       .  A
C251       Br266   1.927       .  S
C252        C255   1.485       .  S
C252        C253   1.403       .  A
C253        C254   1.402       .  A
C253       Br261   1.935       .  S
C254       Br265   1.938       .  S
C255        C256   1.407       .  A
C255        C260   1.407       .  A
C256        C257   1.407       .  A
C256       Br267   1.934       .  S
C257        C258   1.417       .  A
C257       Br263   1.929       .  S
C258        C259   1.419       .  A
C259        C260   1.410       .  A
C259       Br268   1.932       .  S
C260       Br264   1.930       .  S
C269        C270   1.414       .  A
C269        C274   1.416       .  A
C270        C271   1.405       .  A
C270       Br282   1.924       .  S
C271        C272   1.406       .  A
C271       Br286   1.931       .  S
C272        C275   1.482       .  S
C272        C273   1.407       .  A
C273        C274   1.408       .  A
C273       Br281   1.929       .  S
C274       Br285   1.931       .  S
C275        C276   1.409       .  A
C275        C280   1.403       .  A
C276        C277   1.411       .  A
C276       Br287   1.927       .  S
C277        C278   1.412       .  A
C277       Br283   1.928       .  S
C278        C279   1.424       .  A
C279        C280   1.403       .  A
C279       Br288   1.939   1_545  S
C280       Br284   1.936       .  S
C289        C290   1.414       .  A
C289        C294   1.425       .  A
C290        C291   1.411       .  A
C290       Br302   1.930       .  S
C291        C292   1.409       .  A
C291       Br306   1.929       .  S
C292        C295   1.485   1_554  S
C292        C293   1.404       .  A
C293        C294   1.406       .  A
C293       Br301   1.935   1_554  S
C294       Br305   1.937       .  S
C295        C296   1.408       .  A
C295        C300   1.407   1_556  A
C296        C297   1.407       .  A
C296       Br307   1.929       .  S
C297        C298   1.415       .  A
C297       Br303   1.925       .  S
C298        C299   1.416       .  A
C299        C300   1.407   1_556  A
C299       Br308   1.933   1_556  S
C300       Br304   1.930       .  S
C309        C310   1.420       .  A
C309        C314   1.426   1_554  A
C310        C311   1.412       .  A
C310       Br322   1.931       .  S
C311        C312   1.407   1_554  A
C311       Br326   1.930       .  S
C312        C315   1.483       .  S
C312        C313   1.403       .  A
C313        C314   1.403       .  A
C313       Br321   1.934       .  S
C314       Br325   1.939       .  S
C315        C316   1.409       .  A
C315        C320   1.404       .  A
C316        C317   1.410       .  A
C316       Br327   1.930   1_556  S
C317        C318   1.419       .  A
C317       Br323   1.935       .  S
C318        C319   1.419       .  A
C319        C320   1.403       .  A
C319       Br328   1.934       .  S
C320       Br324   1.932       .  S
