geometry optimzed in LAMMPS
_audit_creation_date              2020-11-30 
_audit_creation_method            'lammps2cif' 
_symmetry_space_group_name_H-M    'P1' 
_symmetry_Int_Tables_number       1 
_symmetry_cell_setting            triclinic 
loop_ 
_symmetry_equiv_pos_as_xyz 
  x,y,z 
_cell_length_a                    25.2640207 
_cell_length_b                    25.209082423558836 
_cell_length_c                    25.32032181007658 
_cell_angle_alpha                 90.14167275284143 
_cell_angle_beta                  89.91078892154536 
_cell_angle_gamma                 89.91022730027068 
loop_ 
_atom_site_label 
_atom_site_type_symbol 
_atom_site_fract_x 
_atom_site_fract_y 
_atom_site_fract_z 
_atom_site_charge 
O1          O  0.69070422  0.79443239  0.10356126    -0.85100
O2          O  0.58661871  0.77350278  0.12338330    -0.82100
C3          C  0.57738585  0.77307007  0.17292505     0.98400
O4          O  0.58177173  0.81442257  0.20037399    -0.82200
O5          O  0.61404412  0.91411972  0.23142398    -0.84800
C6          C  0.66300019  0.90803091  0.24143705     1.02900
O7          O  0.69395761  0.89292122  0.20555715    -0.77600
O8          O  0.73626272  0.86798011  0.10667929    -0.77800
C9          C  0.73415966  0.81798776  0.10033026     1.02800
O10         O  0.66481302  0.87212986  0.02297991    -0.85100
O11         O  0.56027434  0.85382089  0.04564989    -0.82200
C12         C  0.51719938  0.84942905  0.06975258     0.98400
O13         O  0.51545992  0.85532165  0.11944953    -0.82200
O14         O  0.55582370  0.95546686  0.14147310    -0.84800
C15         C  0.58608770  0.99185482  0.15657473     1.02900
O16         O  0.63552210  0.98252305  0.16176880    -0.77600
O17         O  0.67092587  0.94952597  0.06325936    -0.77800
C18         C  0.67512000  0.92162952  0.02217466     1.02800
Cr19       Cr  0.62557986  0.82722680  0.07753054     1.93700
Cr20       Cr  0.57080173  0.88449719  0.16983630     1.93200
Cr21       Cr  0.68026609  0.92003212  0.13398635     1.39100
O22         O  0.62562864  0.87694750  0.12674742    -1.22900
O23         O  0.80742749  0.20354579  0.58907382    -0.85100
O24         O  0.90991066  0.23486181  0.61649929    -0.82100
C25         C  0.90790114  0.24201943  0.66603072     0.98400
O26         O  0.89336381  0.20470689  0.69552090    -0.82200
O27         O  0.86866449  0.10278791  0.73077977    -0.84800
C28         C  0.81929293  0.09391743  0.72930100     1.02900
O29         O  0.79429554  0.09690123  0.68648378    -0.77600
O30         O  0.77181970  0.12395623  0.58355340    -0.77800
C31         C  0.76792722  0.17428112  0.58043342     1.02800
O32         O  0.84757526  0.12937851  0.51418622    -0.85100
O33         O  0.94948861  0.15064176  0.55168795    -0.82200
C34         C  0.98708422  0.16039471  0.58285537     0.98400
O35         O  0.97933497  0.16215827  0.63247240    -0.82200
O36         O  0.94888263  0.06269044  0.66240429    -0.84800
C37         C  0.92180544  0.02103114  0.66453465     1.02900
O38         O  0.87275464  0.02141439  0.65379220    -0.77600
O39         O  0.85550761  0.05154669  0.55045475    -0.77800
C40         C  0.84573909  0.07930958  0.51059909     1.02800
Cr41       Cr  0.87841421  0.17608988  0.57159289     1.93700
Cr42       Cr  0.91899043  0.13295071  0.67643201     1.93200
Cr43       Cr  0.82719815  0.07725548  0.61875446     1.39100
O44         O  0.87465590  0.12853851  0.62268797    -1.22900
O45         O  0.38617188  0.29880260  0.30128390    -0.85100
O46         O  0.36453674  0.40121064  0.26858405    -0.82100
C47         C  0.31529954  0.41083869  0.27110984     0.98400
O48         O  0.29143146  0.41095331  0.31474712    -0.82200
O49         O  0.27016820  0.38255494  0.41730813    -0.84800
C50         C  0.26451466  0.33243297  0.41810222     1.02900
O51         O  0.30270373  0.30189495  0.40780516    -0.77600
O52         O  0.40330586  0.26641306  0.37905309    -0.77800
C53         C  0.39951339  0.26015568  0.32951564     1.02800
O54         O  0.47521183  0.33667812  0.36405965    -0.85100
O55         O  0.44781614  0.43808232  0.33534211    -0.82200
C56         C  0.42232982  0.48094104  0.33557569     0.98400
O57         O  0.37354944  0.48217987  0.34748166    -0.82200
O58         O  0.35704187  0.45011606  0.45040410    -0.84800
C59         C  0.34601767  0.42200050  0.48972342     1.02900
O60         O  0.34593000  0.37195057  0.48499836    -0.77600
O61         O  0.44667331  0.34758407  0.44556549    -0.77800
C62         C  0.48367005  0.33753327  0.41362675     1.02800
Cr63       Cr  0.41510318  0.36903347  0.32130942     1.93700
Cr64       Cr  0.32657369  0.42758015  0.38208515     1.93200
Cr65       Cr  0.37454977  0.32553866  0.42578821     1.39100
O66         O  0.37200812  0.37446685  0.37601691    -1.22900
O67         O  0.05824175  0.54618661  0.85736021    -0.85100
O68         O  0.01506053  0.64496270  0.88249283    -0.82100
C69         C  0.01679385  0.64919770  0.93235049     0.98400
O70         O  0.06014517  0.64508567  0.95579018    -0.82200
O71         O  0.16398431  0.62606528  0.97694188    -0.84800
C72         C  0.17447881  0.57659216  0.97546262     1.02900
O73         O  0.17290929  0.55090839  0.93286108    -0.77600
O74         O  0.13805121  0.52118356  0.83431206    -0.77800
C75         C  0.08917853  0.51074732  0.84084936     1.02800
O76         O  0.11372488  0.59099946  0.76776565    -0.85100
O77         O  0.08018014  0.68918671  0.80227467    -0.82200
C78         C  0.07590578  0.72987867  0.83073571     0.98400
O79         O  0.08574944  0.72835435  0.88016786    -0.82200
O80         O  0.19028125  0.70748942  0.89992730    -0.84800
C81         C  0.23396073  0.68395486  0.90113119     1.02900
O82         O  0.23644826  0.63448108  0.89215441    -0.77600
O83         O  0.19369646  0.61288509  0.79234244    -0.77800
C84         C  0.16245226  0.59742215  0.75691473     1.02800
Cr85       Cr  0.07082407  0.61819450  0.83076560     1.93700
Cr86       Cr  0.12515645  0.67318174  0.92427692     1.93200
Cr87       Cr  0.18133522  0.58327707  0.86344032     1.39100
O88         O  0.12596385  0.62534393  0.87313987    -1.22900
C89         C  0.27328227  0.44963968  0.14520503     0.30000
C90         C  0.27992060  0.46173099  0.09165421    -0.36300
C91         C  0.24123284  0.49456929  0.06927626     0.16000
C92         C  0.19871059  0.51451291  0.09736118     0.21800
C93         C  0.19103760  0.50084908  0.15063276    -0.34400
C94         C  0.22987381  0.46783284  0.17312635     0.15900
O95         O  0.30792711  0.42482318  0.17532693    -0.26500
C96         C  0.28623057  0.42638429  0.22317963     0.05700
C97         C  0.23732951  0.45210247  0.22402997    -0.31300
O98         O  0.16943714  0.54750232  0.06900899    -0.23200
C99         C  0.19358266  0.54798949  0.02220622    -0.03200
C100        C  0.23796158  0.51545326  0.02010849    -0.17600
H101        H  0.31415168  0.44838782  0.06952537     0.20400
H102        H  0.15833543  0.51655130  0.17351714     0.18800
H103        H  0.21300481  0.46161714  0.25800062     0.18700
H104        H  0.26453871  0.50897738  0.98712227     0.14600
C105        C  0.29492590  0.50888868  0.58538669     0.30000
C106        C  0.28527135  0.55818240  0.60981429    -0.36300
C107        C  0.24308522  0.55983380  0.64611394     0.16000
C108        C  0.21183931  0.51627567  0.65664947     0.21800
C109        C  0.22196871  0.46690163  0.63284515    -0.34400
C110        C  0.26495172  0.46492805  0.59770213     0.15900
O111        O  0.33023348  0.49895752  0.54802225    -0.26500
C112        C  0.32373732  0.44757167  0.53727993     0.05700
C113        C  0.28395233  0.42434333  0.56746269    -0.31300
O114        O  0.17617064  0.52582799  0.69358321    -0.23200
C115        C  0.18479289  0.57602710  0.70752891    -0.03200
C116        C  0.22619769  0.59914855  0.67943376    -0.17600
H117        H  0.30915178  0.59273389  0.60133481     0.20400
H118        H  0.19840379  0.43221696  0.64170119     0.18800
H119        H  0.26817774  0.38457078  0.56415121     0.18700
H120        H  0.24350862  0.63797143  0.68521134     0.14600
C121        C  0.58747222  0.25972385  0.45959513     0.30000
C122        C  0.61367724  0.21155122  0.46852515    -0.36300
C123        C  0.65310556  0.21228763  0.50731547     0.16000
C124        C  0.66703952  0.25767959  0.53447576     0.21800
C125        C  0.63999053  0.30577908  0.52633611    -0.34400
C126        C  0.59952355  0.30473040  0.48831230     0.15900
O127        O  0.54774131  0.26706071  0.42683937    -0.26500
C128        C  0.53362249  0.31724824  0.43479560     0.05700
C129        C  0.56404507  0.34263777  0.47302193    -0.31300
O130        O  0.70797338  0.24999369  0.56595274    -0.23200
C131        C  0.71932196  0.19868701  0.55982693    -0.03200
C132        C  0.68609366  0.17321724  0.52422393    -0.17600
H133        H  0.60372655  0.17581920  0.44692534     0.20400
H134        H  0.64978043  0.34144689  0.54810021     0.18800
H135        H  0.55917802  0.38231114  0.48876877     0.18700
H136        H  0.68825095  0.13267343  0.51021033     0.14600
C137        C  0.16454403  0.28305285  0.49791589     0.30000
C138        C  0.13881321  0.27423255  0.54614417    -0.36300
C139        C  0.10211074  0.23268356  0.54666575     0.16000
C140        C  0.09033387  0.20290641  0.50240981     0.21800
C141        C  0.11697851  0.21093949  0.45444814    -0.34400
C142        C  0.15460410  0.25174092  0.45423794     0.15900
O143        O  0.20183750  0.31833965  0.48922385    -0.26500
C144        C  0.21627855  0.30925713  0.43953288     0.05700
C145        C  0.18865943  0.26799725  0.41583320    -0.31300
O146        O  0.05042321  0.17027057  0.51033226    -0.23200
C147        C  0.03745380  0.17834834  0.56067047    -0.03200
C148        C  0.06888405  0.21610188  0.58546139    -0.17600
H149        H  0.14677645  0.29815485  0.58077695     0.20400
H150        H  0.10856176  0.18745293  0.41964498     0.18800
H151        H  0.19456839  0.25101650  0.37696576     0.18700
H152        H  0.06447331  0.23253084  0.62475011     0.14600
C153        C  0.04324539  0.40679609  0.76228092     0.30000
C154        C  0.03876072  0.37769663  0.71510724    -0.36300
C155        C  0.99291815  0.34667393  0.70971788     0.16000
C156        C  0.95481085  0.34322787  0.74865487     0.21800
C157        C  0.95872895  0.37323163  0.79530623    -0.34400
C158        C  0.00405801  0.40504733  0.80025653     0.15900
O159        O  0.08114521  0.44081822  0.77416198    -0.26500
C160        C  0.06594389  0.46144195  0.82023252     0.05700
C161        C  0.01813910  0.44072879  0.83819447    -0.31300
O162        O  0.91774374  0.30803451  0.73738965    -0.23200
C163        C  0.93138355  0.28987032  0.68983942    -0.03200
C164        C  0.97750560  0.31301302  0.67050510    -0.17600
H165        H  0.06873000  0.37942188  0.68456404     0.20400
H166        H  0.92861541  0.37176137  0.82570556     0.18800
H167        H  0.99536434  0.45288393  0.87240356     0.18700
H168        H  0.99875801  0.30331341  0.63462513     0.14600
C169        C  0.01065521  0.82200245  0.75111619     0.30000
C170        C  0.97683888  0.83810818  0.71013959    -0.36300
C171        C  0.96894815  0.89291740  0.70526128     0.16000
C172        C  0.99382775  0.92911162  0.73777136     0.21800
C173        C  0.02687761  0.91295169  0.77925673    -0.34400
C174        C  0.03379963  0.85814585  0.78491290     0.15900
O175        O  0.02327473  0.77283750  0.76286017    -0.26500
C176        C  0.05419221  0.77730699  0.80518803     0.05700
C177        C  0.06191878  0.82950352  0.82110241    -0.31300
O178        O  0.98137407  0.97832706  0.72618011    -0.23200
C179        C  0.94737602  0.97382550  0.68639451    -0.03200
C180        C  0.93766401  0.92155948  0.67172166    -0.17600
H181        H  0.95765828  0.80983338  0.68427117     0.20400
H182        H  0.04544507  0.94119253  0.80559466     0.18800
H183        H  0.08516493  0.84409214  0.85391684     0.18700
H184        H  0.91150090  0.90698657  0.64116121     0.14600
C185        C  0.70995104  0.98465294  0.34603942     0.30000
C186        C  0.71650050  0.03232483  0.37392500    -0.36300
C187        C  0.76135725  0.03559962  0.40630905     0.16000
C188        C  0.79650858  0.99414854  0.41259976     0.21800
C189        C  0.79051306  0.94668874  0.38389441    -0.34400
C190        C  0.74634154  0.94397553  0.35021762     0.15900
O191        O  0.67299278  0.97484623  0.31059438    -0.26500
C192        C  0.68593343  0.92746725  0.29120566     0.05700
C193        C  0.73141870  0.90646665  0.31425298    -0.31300
O194        O  0.83323053  0.00459399  0.44835049    -0.23200
C195        C  0.82237590  0.05408079  0.46365299    -0.03200
C196        C  0.77841667  0.07534140  0.43838030    -0.17600
H197        H  0.68896182  0.06503159  0.36993002     0.20400
H198        H  0.81851864  0.91432055  0.38725208     0.18800
H199        H  0.75233981  0.87049986  0.30351798     0.18700
H200        H  0.75947364  0.11321135  0.44561576     0.14600
C201        C  0.70750528  0.97666201  0.89848689     0.30000
C202        C  0.70186755  0.98903548  0.84466628    -0.36300
C203        C  0.73898189  0.02492586  0.82376298     0.16000
C204        C  0.77961556  0.04630168  0.85329376     0.21800
C205        C  0.78472747  0.03466078  0.90717261    -0.34400
C206        C  0.74709419  0.99965715  0.92824776     0.15900
O207        O  0.67720519  0.94432817  0.92657165    -0.26500
C208        C  0.69748197  0.94746565  0.97501953     0.05700
C209        C  0.74072615  0.98139092  0.97822536    -0.31300
O210        O  0.81225713  0.07558092  0.82479543    -0.23200
C211        C  0.79160624  0.07394438  0.77649746    -0.03200
C212        C  0.74581245  0.04330550  0.77370304    -0.17600
H213        H  0.67095205  0.97171404  0.82068093     0.20400
H214        H  0.81618145  0.05130778  0.93093993     0.18800
H215        H  0.76395281  0.99130631  0.01274854     0.18700
H216        H  0.72299718  0.03311142  0.73899211     0.14600
C217        C  0.51043439  0.68120460  0.25145645     0.30000
C218        C  0.47380777  0.66472229  0.28986881    -0.36300
C219        C  0.46879769  0.60974930  0.29651957     0.16000
C220        C  0.49872429  0.57381145  0.26803813     0.21800
C221        C  0.53462855  0.59028559  0.22909671    -0.34400
C222        C  0.53880400  0.64511525  0.22163169     0.15900
O223        O  0.52113967  0.73053045  0.23846246    -0.26500
C224        C  0.55606741  0.72600148  0.19924944     0.05700
C225        C  0.56834107  0.67377023  0.18669215    -0.31300
O226        O  0.48751177  0.52439212  0.28002653    -0.23200
C227        C  0.44937119  0.52841918  0.31606383    -0.03200
C228        C  0.43575190  0.58062249  0.32784754    -0.17600
H229        H  0.45039727  0.69277781  0.31242873     0.20400
H230        H  0.55714035  0.56219905  0.20568903     0.18800
H231        H  0.59535521  0.65920509  0.15675453     0.18700
H232        H  0.40542904  0.59484286  0.35463371     0.14600
C233        C  0.50029370  0.09389628  0.19694336     0.30000
C234        C  0.45379183  0.12498820  0.19704434    -0.36300
C235        C  0.44455209  0.15576592  0.24272691     0.16000
C236        C  0.47797198  0.15460864  0.28575731     0.21800
C237        C  0.52455262  0.12420456  0.28528555    -0.34400
C238        C  0.53470699  0.09503281  0.23912581     0.15900
O239        O  0.51563671  0.05997645  0.15991054    -0.26500
C240        C  0.56149063  0.04065176  0.17784738     0.05700
C241        C  0.57526147  0.06145360  0.22683676    -0.31300
O242        O  0.46344398  0.18784535  0.32339917    -0.23200
C243        C  0.42048690  0.21157619  0.30434537    -0.03200
C244        C  0.40682974  0.19323155  0.25410521    -0.17600
H245        H  0.42701332  0.12552060  0.16373149     0.20400
H246        H  0.55162222  0.12410305  0.31838083     0.18800
H247        H  0.60785997  0.04972816  0.25195886     0.18700
H248        H  0.37574514  0.20771219  0.22852423     0.14600
C249        C  0.92754581  0.70866609  0.02057943     0.30000
C250        C  0.91317538  0.74424485  0.06114862    -0.36300
C251        C  0.85900025  0.75629450  0.06546567     0.16000
C252        C  0.82159116  0.73324772  0.03315167     0.21800
C253        C  0.83597262  0.69793328  0.99244621    -0.34400
C254        C  0.89025441  0.68728110  0.98702259     0.15900
O255        O  0.97620634  0.69546384  0.00696304    -0.27300
C256        C  0.97033294  0.66589469  0.96364214     0.05700
C257        C  0.91759308  0.65955479  0.94919018    -0.31300
O258        O  0.77348341  0.75099458  0.04285427    -0.23200
C259        C  0.77984623  0.78674340  0.08117562    -0.03200
C260        C  0.83241073  0.79201722  0.09680994    -0.17600
H261        H  0.94247485  0.76289090  0.08615436     0.20400
H262        H  0.80698438  0.68156862  0.96556018     0.18800
H263        H  0.90193006  0.63934748  0.91485820     0.18700
H264        H  0.84862699  0.81861941  0.12620348     0.14600
C265        C  0.42931896  0.78140035  0.98752068     0.30000
C266        C  0.41480065  0.74171019  0.95126906    -0.36300
C267        C  0.36041972  0.73631203  0.94158313     0.16000
C268        C  0.32313137  0.76870590  0.96511089     0.21800
C269        C  0.33761947  0.80794730  0.00195662    -0.34400
C270        C  0.39193150  0.81247244  0.01263022     0.15900
O271        O  0.47774272  0.79189406  0.00346784    -0.26500
C272        C  0.47149845  0.82957080  0.03989352     0.05700
C273        C  0.41884206  0.84375069  0.04776748    -0.31300
O274        O  0.27445999  0.75583688  0.95161519    -0.23200
C275        C  0.28034573  0.71420336  0.91956188    -0.03200
C276        C  0.33308353  0.70003725  0.91204124    -0.17600
H277        H  0.44383926  0.71597959  0.93291076     0.20400
H278        H  0.30842639  0.83225804  0.02193248     0.18800
H279        H  0.40286608  0.87245721  0.07538577     0.18700
H280        H  0.34877821  0.66699233  0.88956392     0.14600
loop_ 
_geom_bond_atom_site_label_1 
_geom_bond_atom_site_label_2 
_geom_bond_distance 
_geom_bond_site_symmetry_2 
_ccdc_geom_bond_type 
O1          Cr19   1.956       .  S
O1            C9   1.252       .  A
O2          Cr19   2.039       .  S
O2            C3   1.276       .  A
C3            O4   1.257       .  A
C3          C224   1.465       .  S
O4          Cr20   1.950       .  S
O5          Cr20   2.046       .  S
O5            C6   1.272       .  A
C6            O7   1.256       .  A
C6          C192   1.471       .  S
O7          Cr21   1.969       .  S
O8          Cr21   2.046       .  S
O8            C9   1.271       .  A
C9          C259   1.477       .  S
O10         Cr19   2.044       .  S
O10          C18   1.275       .  A
O11         Cr19   1.956       .  S
O11          C12   1.252       .  A
C12          O13   1.267       .  A
C12         C272   1.469       .  S
O13         Cr20   2.032       .  S
O14         Cr20   1.966       .  S
O14          C15   1.254       .  A
C15          O16   1.278       .  A
C15         C240   1.477   1_565  S
O16         Cr21   2.059       .  S
O17         Cr21   1.955       .  S
O17          C18   1.258       .  A
C18         C208   1.474   1_554  S
Cr19         O22   1.765       .  S
Cr20         O22   1.772       .  S
Cr21         O22   1.767       .  S
O23         Cr41   1.971       .  S
O23          C31   1.261       .  A
O24         Cr41   2.030       .  S
O24          C25   1.268       .  A
C25          O26   1.257       .  A
C25         C163   1.473       .  S
O26         Cr42   1.979       .  S
O27         Cr42   2.023       .  S
O27          C28   1.268       .  A
C28          O29   1.258       .  A
C28         C211   1.474       .  S
O29         Cr43   1.967       .  S
O30         Cr43   2.035       .  S
O30          C31   1.275       .  A
C31         C131   1.470       .  S
O32         Cr41   2.026       .  S
O32          C40   1.266       .  A
O33         Cr41   1.970       .  S
O33          C34   1.260       .  A
C34          O35   1.272       .  A
C34         C147   1.463   1_655  S
O35         Cr42   2.027       .  S
O36         Cr42   1.956       .  S
O36          C37   1.255       .  A
C37          O38   1.269       .  A
C37         C179   1.463   1_545  S
O38         Cr43   2.024       .  S
O39         Cr43   1.978       .  S
O39          C40   1.254       .  A
C40         C195   1.472       .  S
Cr41         O44   1.768       .  S
Cr42         O44   1.767       .  S
Cr43         O44   1.767       .  S
O45         Cr63   1.982       .  S
O45          C53   1.256       .  A
O46         Cr63   2.020       .  S
O46          C47   1.268       .  A
C47          O48   1.258       .  A
C47          C96   1.473       .  S
O48         Cr64   1.968       .  S
O49         Cr64   2.030       .  S
O49          C50   1.272       .  A
C50          O51   1.260       .  A
C50         C144   1.457       .  S
O51         Cr65   1.965       .  S
O52         Cr65   2.033       .  S
O52          C53   1.268       .  A
C53         C243   1.476       .  S
O54         Cr63   2.037       .  S
O54          C62   1.274       .  A
O55         Cr63   1.960       .  S
O55          C56   1.257       .  A
C56          O57   1.269       .  A
C56         C227   1.466       .  S
O57         Cr64   2.020       .  S
O58         Cr64   1.977       .  S
O58          C59   1.255       .  A
C59          O60   1.267       .  A
C59         C112   1.475       .  S
O60         Cr65   2.031       .  S
O61         Cr65   1.971       .  S
O61          C62   1.260       .  A
C62         C128   1.464       .  S
Cr63         O66   1.765       .  S
Cr64         O66   1.768       .  S
Cr65         O66   1.767       .  S
O67         Cr85   1.964       .  S
O67          C75   1.256       .  A
O68         Cr85   2.035       .  S
O68          C69   1.267       .  A
C69          O70   1.251       .  A
C69         C256   1.475   1_455  S
O70         Cr86   1.959       .  S
O71         Cr86   2.039       .  S
O71          C72   1.275       .  A
C72          O73   1.257       .  A
C72          C99   1.469   1_556  S
O73         Cr87   1.951       .  S
O74         Cr87   2.047       .  S
O74          C75   1.273       .  A
C75         C160   1.470       .  S
O76         Cr85   2.044       .  S
O76          C84   1.272       .  A
O77         Cr85   1.946       .  S
O77          C78   1.257       .  A
C78          O79   1.277       .  A
C78         C176   1.467       .  S
O79         Cr86   2.044       .  S
O80         Cr86   1.959       .  S
O80          C81   1.253       .  A
C81          O82   1.269       .  A
C81         C275   1.475       .  S
O82         Cr87   2.034       .  S
O83         Cr87   1.975       .  S
O83          C84   1.257       .  A
C84         C115   1.472       .  S
Cr85         O88   1.769       .  S
Cr86         O88   1.767       .  S
Cr87         O88   1.771       .  S
C89          C94   1.381       .  A
C89          C90   1.400       .  A
C89          O95   1.320       .  A
C90          C91   1.401       .  A
C90         H101   1.082       .  S
C91         C100   1.355       .  A
C91          C92   1.381       .  A
C92          C93   1.406       .  A
C92          O98   1.325       .  A
C93          C94   1.408       .  A
C93         H102   1.082       .  S
C94          C97   1.363       .  A
O95          C96   1.330       .  A
C96          C97   1.394       .  A
C97         H103   1.083       .  S
O98          C99   1.332       .  A
C99         C100   1.389       .  A
C100        H104   1.083   1_554  S
C105        C110   1.379       .  A
C105        C106   1.407       .  A
C105        O111   1.322       .  A
C106        C107   1.407       .  A
C106        H117   1.082       .  S
C107        C116   1.367       .  A
C107        C108   1.380       .  A
C108        C109   1.405       .  A
C108        O114   1.319       .  A
C109        C110   1.404       .  A
C109        H118   1.082       .  S
C110        C113   1.363       .  A
O111        C112   1.333       .  A
C112        C113   1.392       .  A
C113        H119   1.083       .  S
O114        C115   1.331       .  A
C115        C116   1.393       .  A
C116        H120   1.082       .  S
C121        C126   1.381       .  A
C121        C122   1.401       .  A
C121        O127   1.316       .  A
C122        C123   1.400       .  A
C122        H133   1.083       .  S
C123        C132   1.360       .  A
C123        C124   1.380       .  A
C124        C125   1.407       .  A
C124        O130   1.321       .  A
C125        C126   1.406       .  A
C125        H134   1.083       .  S
C126        C129   1.366       .  A
O127        C128   1.329       .  A
C128        C129   1.392       .  A
C129        H135   1.083       .  S
O130        C131   1.333       .  A
C131        C132   1.390       .  A
C132        H136   1.082       .  S
C137        C142   1.381       .  A
C137        C138   1.401       .  A
C137        O143   1.315       .  A
C138        C139   1.400       .  A
C138        H149   1.082       .  S
C139        C148   1.358       .  A
C139        C140   1.380       .  A
C140        C141   1.403       .  A
C140        O146   1.318       .  A
C141        C142   1.402       .  A
C141        H150   1.082       .  S
C142        C145   1.362       .  A
O143        C144   1.329       .  A
C144        C145   1.389       .  A
C145        H151   1.082       .  S
O146        C147   1.331       .  A
C147        C148   1.390       .  A
C148        H152   1.082       .  S
C153        C158   1.380       .  A
C153        C154   1.405       .  A
C153        O159   1.321       .  A
C154        C155   1.405   1_455  A
C154        H165   1.082       .  S
C155        C164   1.362       .  A
C155        C156   1.380       .  A
C156        C157   1.405       .  A
C156        O162   1.322       .  A
C157        C158   1.405   1_655  A
C157        H166   1.082       .  S
C158        C161   1.362       .  A
O159        C160   1.332       .  A
C160        C161   1.393       .  A
C161        H167   1.083   1_455  S
O162        C163   1.332       .  A
C163        C164   1.393       .  A
C164        H168   1.082       .  S
C169        C174   1.380       .  A
C169        C170   1.405   1_455  A
C169        O175   1.314       .  A
C170        C171   1.401       .  A
C170        H181   1.082       .  S
C171        C180   1.368       .  A
C171        C172   1.380       .  A
C172        C173   1.404   1_655  A
C172        O178   1.313       .  A
C173        C174   1.400       .  A
C173        H182   1.082       .  S
C174        C177   1.367       .  A
O175        C176   1.332       .  A
C176        C177   1.389       .  A
C177        H183   1.082       .  S
O178        C179   1.330       .  A
C179        C180   1.390       .  A
C180        H184   1.082       .  S
C185        C190   1.381       .  A
C185        C186   1.402   1_565  A
C185        O191   1.319       .  A
C186        C187   1.402       .  A
C186        H197   1.083       .  S
C187        C196   1.359       .  A
C187        C188   1.380   1_545  A
C188        C189   1.407       .  A
C188        O194   1.324   1_565  A
C189        C190   1.407       .  A
C189        H198   1.083       .  S
C190        C193   1.365       .  A
O191        C192   1.330       .  A
C192        C193   1.394       .  A
C193        H199   1.083       .  S
O194        C195   1.333       .  A
C195        C196   1.390       .  A
C196        H200   1.082       .  S
C201        C206   1.381       .  A
C201        C202   1.406       .  A
C201        O207   1.326       .  A
C202        C203   1.408   1_565  A
C202        H213   1.082       .  S
C203        C212   1.361       .  A
C203        C204   1.380       .  A
C204        C205   1.402       .  A
C204        O210   1.322       .  A
C205        C206   1.404   1_545  A
C205        H214   1.082       .  S
C206        C209   1.357       .  A
O207        C208   1.332       .  A
C208        C209   1.391       .  A
C209        H215   1.083   1_556  S
O210        C211   1.331       .  A
C211        C212   1.394       .  A
C212        H216   1.082       .  S
C217        C222   1.380       .  A
C217        C218   1.405       .  A
C217        O223   1.315       .  A
C218        C219   1.402       .  A
C218        H229   1.083       .  S
C219        C228   1.367       .  A
C219        C220   1.380       .  A
C220        C221   1.403       .  A
C220        O226   1.314       .  A
C221        C222   1.400       .  A
C221        H230   1.082       .  S
C222        C225   1.365       .  A
O223        C224   1.332       .  A
C224        C225   1.388       .  A
C225        H231   1.082       .  S
O226        C227   1.330       .  A
C227        C228   1.391       .  A
C228        H232   1.082       .  S
C233        C238   1.379       .  A
C233        C234   1.411       .  A
C233        O239   1.325       .  A
C234        C235   1.410       .  A
C234        H245   1.082       .  S
C235        C244   1.370       .  A
C235        C236   1.380       .  A
C236        C237   1.403       .  A
C236        O242   1.319       .  A
C237        C238   1.402       .  A
C237        H246   1.082       .  S
C238        C241   1.363       .  A
O239        C240   1.337       .  A
C240        C241   1.390       .  A
C241        H247   1.083       .  S
O242        C243   1.330       .  A
C243        C244   1.396       .  A
C244        H248   1.082       .  S
C249        C254   1.379   1_554  A
C249        C250   1.409       .  A
C249        O255   1.318       .  A
C250        C251   1.406       .  A
C250        H261   1.082       .  S
C251        C260   1.373       .  A
C251        C252   1.379       .  A
C252        C253   1.407   1_554  A
C252        O258   1.317       .  A
C253        C254   1.403       .  A
C253        H262   1.082       .  S
C254        C257   1.370       .  A
O255        C256   1.333   1_554  A
C256        C257   1.392       .  A
C257        H263   1.082       .  S
O258        C259   1.333       .  A
C259        C260   1.393       .  A
C260        H264   1.082       .  S
C265        C270   1.380   1_556  A
C265        C266   1.406       .  A
C265        O271   1.316   1_556  A
C266        C267   1.403       .  A
C266        H277   1.082       .  S
C267        C276   1.369       .  A
C267        C268   1.379       .  A
C268        C269   1.407   1_556  A
C268        O274   1.318       .  A
C269        C270   1.404       .  A
C269        H278   1.082       .  S
C270        C273   1.370       .  A
O271        C272   1.331       .  A
C272        C273   1.391       .  A
C273        H279   1.082       .  S
O274        C275   1.333       .  A
C275        C276   1.392       .  A
C276        H280   1.082       .  S
