geometry optimzed in LAMMPS
_audit_creation_date              2020-11-30 
_audit_creation_method            'lammps2cif' 
_symmetry_space_group_name_H-M    'P1' 
_symmetry_Int_Tables_number       1 
_symmetry_cell_setting            triclinic 
loop_ 
_symmetry_equiv_pos_as_xyz 
  x,y,z 
_cell_length_a                    26.95568972 
_cell_length_b                    26.85905776932716 
_cell_length_c                    26.905855356051553 
_cell_angle_alpha                 89.95213569940823 
_cell_angle_beta                  89.96330539477157 
_cell_angle_gamma                 89.87893441644633 
loop_ 
_atom_site_label 
_atom_site_type_symbol 
_atom_site_fract_x 
_atom_site_fract_y 
_atom_site_fract_z 
_atom_site_charge 
Fe1        Fe  0.57917460  0.87173906  0.17859713     1.65800
Fe2        Fe  0.67487058  0.92577689  0.12134253     1.73200
Fe3        Fe  0.62738391  0.82085640  0.07688886     1.54400
O4          O  0.60145392  0.76629723  0.12730175    -0.81000
O5          O  0.64986436  0.94426385  0.05209670    -0.79300
O6          O  0.60299840  0.80307472  0.20110138    -0.83500
O7          O  0.52385712  0.83885782  0.13317173    -0.78300
O8          O  0.69779778  0.80296087  0.09631103    -0.80100
O9          O  0.62622498  0.97919069  0.15323151    -0.82900
C10         C  0.52005769  0.83231204  0.08615960     0.97900
C11         C  0.59847740  0.76436790  0.17470386     1.05300
O12         O  0.62696425  0.87294304  0.12564903    -1.11800
O13         O  0.70129632  0.90839582  0.18981192    -0.74300
O14         O  0.62909062  0.90431640  0.22973648    -0.77800
O15         O  0.55666947  0.83790066  0.05717930    -0.78400
C16         C  0.67591761  0.91224175  0.22920015     0.96800
O17         O  0.55368386  0.94041145  0.15846129    -0.76400
O18         O  0.72999542  0.87874636  0.09035397    -0.81600
C19         C  0.65621054  0.91564453  0.01521995     0.99400
C20         C  0.73429759  0.83133143  0.08811866     1.05400
O21         O  0.65377072  0.86828637  0.01974826    -0.77200
C22         C  0.57961883  0.97947128  0.16241652     1.03700
Fe23       Fe  0.92228792  0.12953272  0.67599387     1.65800
Fe24       Fe  0.82618501  0.07206399  0.62260854     1.73200
Fe25       Fe  0.86878733  0.17819857  0.57547337     1.54400
O26         O  0.89548721  0.23373716  0.62355836    -0.81000
O27         O  0.84858449  0.05405659  0.55232197    -0.79300
O28         O  0.89818016  0.19833471  0.69798618    -0.83500
O29         O  0.97515111  0.16246495  0.62767060    -0.78300
O30         O  0.79828125  0.19457625  0.59683378    -0.80100
O31         O  0.87780911  0.01991921  0.65173654    -0.82900
C32         C  0.97688443  0.16871638  0.58047701     0.97900
C33         C  0.90161744  0.23648989  0.67048799     1.05300
O34         O  0.87248668  0.12651119  0.62487056    -1.11800
O35         O  0.80208560  0.08851613  0.69237932    -0.74300
O36         O  0.87516612  0.09670572  0.73005727    -0.77800
O37         O  0.93905573  0.16270497  0.55327600    -0.78400
C38         C  0.82862891  0.08714916  0.73118103     0.96800
O39         O  0.94888213  0.06126919  0.65616179    -0.76400
O40         O  0.76853014  0.11742602  0.59375656    -0.81600
C41         C  0.84149444  0.08263741  0.51551500     0.99400
C42         C  0.76258720  0.16464415  0.59076983     1.05400
O43         O  0.84222383  0.12994177  0.52001881    -0.77200
C44         C  0.92469339  0.02102014  0.65922849     1.03700
Fe45       Fe  0.32376110  0.42735981  0.37406433     1.65800
Fe46       Fe  0.42469087  0.37334378  0.32651061     1.73200
Fe47       Fe  0.37018270  0.32514471  0.42667214     1.54400
O48         O  0.34025579  0.37425883  0.47991058    -0.81000
O49         O  0.40432376  0.30308423  0.30538923    -0.79300
O50         O  0.34297527  0.44881112  0.44409855    -0.83500
O51         O  0.26756765  0.38059621  0.40281386    -0.78300
O52         O  0.43894688  0.34457310  0.45015105    -0.80100
O53         O  0.37850600  0.40343557  0.27015896    -0.82900
C54         C  0.26381410  0.33341987  0.40832964     0.97900
C55         C  0.33764041  0.42168253  0.48223284     1.05300
O56         O  0.37276179  0.37519179  0.37551955    -1.11800
O57         O  0.44740177  0.44308966  0.34623295    -0.74300
O58         O  0.37389117  0.48080529  0.34539457    -0.77800
O59         O  0.30100773  0.30483664  0.40442445    -0.78400
C60         C  0.42118779  0.48199525  0.34145878     0.96800
O61         O  0.30311747  0.40750848  0.30393687    -0.76400
O62         O  0.47684535  0.34298876  0.37689928    -0.81600
C63         C  0.40767654  0.26558655  0.33389743     0.99400
C64         C  0.47739643  0.33744018  0.42413701     1.05400
O65         O  0.40063951  0.26916593  0.38072340    -0.77200
C66         C  0.33158975  0.41010601  0.26657255     1.03700
Fe67       Fe  0.17574559  0.57514327  0.86993889     1.65800
Fe68       Fe  0.07701174  0.63206597  0.82154794     1.73200
Fe69       Fe  0.12548423  0.67281545  0.92716760     1.54400
O70         O  0.15336682  0.61980372  0.97847706    -0.81000
O71         O  0.10073690  0.70216235  0.80507216    -0.79300
O72         O  0.15511172  0.54806737  0.93755458    -0.83500
O73         O  0.23082647  0.62016836  0.90396860    -0.78300
O74         O  0.05545329  0.65175759  0.94538154    -0.80100
O75         O  0.12448584  0.60363885  0.76622038    -0.82900
C76         C  0.23323639  0.66686340  0.91333833     0.97900
C77         C  0.15931520  0.57248280  0.97753316     1.05300
O78         O  0.12610358  0.62646053  0.87306909    -1.11800
O79         O  0.05265529  0.56224509  0.83698081    -0.74300
O80         O  0.12603203  0.52391789  0.83609430    -0.77800
O81         O  0.19546603  0.69475635  0.91031126    -0.78400
C82         C  0.07872099  0.52343481  0.83093458     0.96800
O83         O  0.19838224  0.60077923  0.80241772    -0.76400
O84         O  0.02270452  0.66092172  0.87024746    -0.81600
C85         C  0.09500086  0.73801038  0.83504105     0.99400
C86         C  0.01892579  0.66160871  0.91759049     1.05400
O87         O  0.09767871  0.73182438  0.88219973    -0.77200
C88         C  0.17142508  0.59767583  0.76411095     1.03700
C89         C  0.30319497  0.48638519  0.15204559    -0.27500
C90         C  0.25480209  0.47054358  0.14093136     0.06100
C91         C  0.23445185  0.43058642  0.16774891     0.25700
C92         C  0.26107527  0.40884547  0.20678335    -0.12000
C93         C  0.30887817  0.42567555  0.21902213    -0.25900
C94         C  0.33026298  0.46395348  0.19049567     0.36500
C95         C  0.22568009  0.49608222  0.10166895     0.06100
F96         F  0.18782798  0.41435594  0.15790663    -0.19700
H97         H  0.24365100  0.37984488  0.22866926     0.15900
F98         F  0.37577275  0.48210016  0.20204902    -0.23400
H99         H  0.31968504  0.51680947  0.13139879     0.17700
C100        C  0.21661242  0.54761350  0.10389593     0.25700
C101        C  0.19209436  0.57189987  0.06485355    -0.12000
C102        C  0.17634141  0.54531205  0.02271965    -0.26000
C103        C  0.18337823  0.49309248  0.02192767     0.36600
C104        C  0.20772306  0.46899672  0.06104557    -0.27600
F105        F  0.23189729  0.57454299  0.14368034    -0.19700
H106        H  0.18726221  0.61187012  0.06679345     0.15900
F107        F  0.16854304  0.46521991  0.98258845    -0.23500
H108        H  0.21408710  0.42923073  0.05881629     0.17800
C109        C  0.19773642  0.52324891  0.64846432    -0.27500
C110        C  0.24925532  0.52989717  0.64363226     0.06100
C111        C  0.27310354  0.56487864  0.67426966     0.25700
C112        C  0.24635987  0.59017771  0.71084182    -0.12000
C113        C  0.19550225  0.58112379  0.71773996    -0.25900
C114        C  0.17101982  0.54835647  0.68528346     0.36500
C115        C  0.27755974  0.50010927  0.60675870     0.06100
F116        F  0.32277522  0.57243641  0.67107689    -0.19700
H117        H  0.26604385  0.61505769  0.73559216     0.15900
F118        F  0.12224207  0.53749145  0.69153571    -0.23400
H119        H  0.17827447  0.49752676  0.62444032     0.17700
C120        C  0.26946230  0.44853239  0.60162406     0.25700
C121        C  0.29214286  0.42203909  0.56302771    -0.12000
C122        C  0.32343121  0.44643024  0.52916397    -0.26000
C123        C  0.33462573  0.49701621  0.53682442     0.36600
C124        C  0.31155299  0.52357011  0.57495801    -0.27600
F125        F  0.23879460  0.42393390  0.63323208    -0.19700
H126        H  0.28306692  0.38309674  0.55805906     0.15900
F127        F  0.36647974  0.52137204  0.50623287    -0.23500
H128        H  0.31866126  0.56308313  0.57812531     0.17800
C129        C  0.66270753  0.25950525  0.56418006    -0.27500
C130        C  0.63513407  0.23523121  0.52736382     0.06100
C131        C  0.64604125  0.18533318  0.51585658     0.25700
C132        C  0.68533720  0.16085119  0.53971812    -0.12000
C133        C  0.71465191  0.18608764  0.57474850    -0.25900
C134        C  0.70222736  0.23542413  0.58751476     0.36500
C135        C  0.59594229  0.26296973  0.50065539     0.06100
F136        F  0.61923537  0.16064648  0.48104597    -0.19700
H137        H  0.69459106  0.12317404  0.52872893     0.15900
F138        F  0.72942585  0.26108762  0.62130860    -0.23400
H139        H  0.65473212  0.29791169  0.57356333     0.17700
C140        C  0.55730418  0.28573244  0.52716904     0.25700
C141        C  0.52078434  0.31258350  0.50207957    -0.12000
C142        C  0.52166591  0.31710412  0.44988977    -0.26000
C143        C  0.56132084  0.29540962  0.42345598     0.36600
C144        C  0.59801993  0.26848104  0.44877880    -0.27600
F145        F  0.55385331  0.28037684  0.57724022    -0.19700
H146        H  0.49070920  0.32841071  0.52366751     0.15900
F147        F  0.56379505  0.29853942  0.37317194    -0.23500
H148        H  0.62809465  0.25174831  0.42787855     0.17800
C149        C  0.16855780  0.23647270  0.44285001    -0.27500
C150        C  0.13804329  0.26330353  0.47552039     0.06100
C151        C  0.14570486  0.31474757  0.48129851     0.25700
C152        C  0.18451099  0.33841571  0.45603771    -0.12000
C153        C  0.21663644  0.31102270  0.42522371    -0.25900
C154        C  0.20753990  0.25988142  0.41801188     0.36500
C155        C  0.09850569  0.23704480  0.50326888     0.06100
F156        F  0.11603512  0.34194001  0.51175402    -0.19700
H157        H  0.19104534  0.37762286  0.46272313     0.15900
F158        F  0.23731055  0.23205285  0.38819509    -0.23400
H159        H  0.16312298  0.19684445  0.43776982     0.17700
C160        C  0.06327173  0.20860176  0.47763453     0.25700
C161        C  0.02584989  0.18401282  0.50357085    -0.12000
C162        C  0.02232035  0.18743402  0.55567947    -0.26000
C163        C  0.05843549  0.21496063  0.58157041     0.36600
C164        C  0.09617567  0.23954937  0.55541568    -0.27600
F165        F  0.06373764  0.20637122  0.42722243    -0.19700
H166        H  0.99846376  0.16352114  0.48245782     0.15900
F167        F  0.05596220  0.22024483  0.63167553    -0.23500
H168        H  0.12339453  0.26096519  0.57582401     0.17800
C169        C  0.97473350  0.43441568  0.79931382    -0.27500
C170        C  0.99828226  0.40164817  0.76636388     0.06100
C171        C  0.04960984  0.40646232  0.75802888     0.25700
C172        C  0.07659104  0.44424288  0.78168374    -0.12000
C173        C  0.05261220  0.47819250  0.81341610    -0.25900
C174        C  0.00137400  0.47240925  0.82244384     0.36500
C175        C  0.96896990  0.36242397  0.74123975     0.06100
F176        F  0.07358522  0.37471777  0.72693197    -0.19700
H177        H  0.11567957  0.44825956  0.77349373     0.15900
F178        F  0.97658310  0.50417729  0.85289244    -0.23400
H179        H  0.93530190  0.43128856  0.80621974     0.17700
C180        C  0.94172772  0.32779100  0.76923080     0.25700
C181        C  0.91695466  0.28879387  0.74560833    -0.12000
C182        C  0.91836007  0.28372520  0.69358602    -0.26000
C183        C  0.94301759  0.32042901  0.66537131     0.36600
C184        C  0.96837377  0.35911934  0.68917910    -0.27600
F185        F  0.94134383  0.33009607  0.81962555    -0.19700
H186        H  0.89825935  0.26126546  0.76835152     0.15900
F187        F  0.94525557  0.31741830  0.61506076    -0.23500
H188        H  0.98839799  0.38612994  0.66695332     0.17800
C189        C  0.07553863  0.84067990  0.74124785    -0.27500
C190        C  0.03109979  0.86205639  0.75843788     0.06100
C191        C  0.01219899  0.84686767  0.80483262     0.25700
C192        C  0.03615318  0.80948329  0.83225856    -0.12000
C193        C  0.07886566  0.78606185  0.81354570    -0.25900
C194        C  0.09904610  0.80283040  0.76830007     0.36500
C195        C  0.00462635  0.89995128  0.72787645     0.06100
F196        F  0.97008572  0.86761294  0.82327123    -0.19700
H197        H  0.01953975  0.79666877  0.86659017     0.15900
F198        F  0.14055924  0.78126812  0.74938730    -0.23400
H199        H  0.09100262  0.85192571  0.70584812     0.17700
C200        C  0.02959081  0.94233127  0.71049647     0.25700
C201        C  0.00377229  0.97963192  0.68509735    -0.12000
C202        C  0.95228285  0.97597029  0.67649361    -0.26000
C203        C  0.92788268  0.93197171  0.69116678     0.36600
C204        C  0.95390130  0.89451480  0.71674255    -0.27600
F205        F  0.07842659  0.94919922  0.72064527    -0.19700
H206        H  0.02402205  0.01266301  0.67420443     0.15900
F207        F  0.87863272  0.92585926  0.68279148    -0.23500
H208        H  0.93417940  0.86153894  0.72874426     0.17800
C209        C  0.70275768  0.98329934  0.34753548    -0.27500
C210        C  0.75488636  0.98224479  0.34839143     0.06100
C211        C  0.78032677  0.95384981  0.31269812     0.25700
C212        C  0.75401077  0.92849559  0.27594870    -0.12000
C213        C  0.70185545  0.93093512  0.27388683    -0.25900
C214        C  0.67635373  0.95801002  0.31066533     0.36500
C215        C  0.78223037  0.01033084  0.38699162     0.06100
F216        F  0.83067801  0.95250167  0.31190290    -0.19700
H217        H  0.77470624  0.90828379  0.24789291     0.15900
F218        F  0.62621118  0.96251141  0.30944957    -0.23400
H219        H  0.68241626  0.00434267  0.37522637     0.17700
C220        C  0.77129331  0.06068872  0.39644553     0.25700
C221        C  0.79362367  0.08527592  0.43636064    -0.12000
C222        C  0.82691971  0.05997986  0.46767828    -0.26000
C223        C  0.84001631  0.01050263  0.45636964     0.36600
C224        C  0.81787122  0.98604345  0.41634056    -0.27600
F225        F  0.73820946  0.08578943  0.36774686    -0.19700
H226        H  0.78273933  0.12326366  0.44437073     0.15900
F227        F  0.87298112  0.98518323  0.48499957    -0.23500
H228        H  0.82696760  0.94734552  0.40963801     0.17800
C229        C  0.80283266  0.01593380  0.85022063    -0.27500
C230        C  0.75072328  0.01922134  0.85287873     0.06100
C231        C  0.72584207  0.05019506  0.81880340     0.25700
C232        C  0.75224095  0.07525320  0.78181158    -0.12000
C233        C  0.80398857  0.06993191  0.77741940    -0.25900
C234        C  0.82931137  0.04086264  0.81282030     0.36500
C235        C  0.72251589  0.99037591  0.89092035     0.06100
F236        F  0.67562555  0.05406411  0.81926553    -0.19700
H237        H  0.73170333  0.09719047  0.75495924     0.15900
F238        F  0.87906666  0.03376521  0.80939365    -0.23400
H239        H  0.82306080  0.99322787  0.87663733     0.17700
C240        C  0.73284557  0.93969630  0.90008259     0.25700
C241        C  0.70807607  0.91411005  0.93815528    -0.12000
C242        C  0.67266844  0.93850519  0.96784434    -0.26000
C243        C  0.66027713  0.98820153  0.95669517     0.36600
C244        C  0.68513400  0.01378518  0.91891706    -0.27600
F245        F  0.76735076  0.91503251  0.87273154    -0.19700
H246        H  0.71861823  0.87599796  0.94617615     0.15900
F247        F  0.62525673  0.01268911  0.98354705    -0.23500
H248        H  0.67633819  0.05266614  0.91285606     0.17800
C249        C  0.56681182  0.67304379  0.27730732    -0.27500
C250        C  0.53505314  0.64017566  0.25223413     0.06100
C251        C  0.53105836  0.64390264  0.20016978     0.25700
C252        C  0.55520925  0.68215112  0.17439849    -0.12000
C253        C  0.58386338  0.71743877  0.19998109    -0.25900
C254        C  0.59114233  0.71120304  0.25154317     0.36500
C255        C  0.50463720  0.60349230  0.28039721     0.06100
F256        F  0.50283342  0.61116045  0.17426715    -0.19700
H257        H  0.54907838  0.68578963  0.13480984     0.15900
F258        F  0.62024931  0.74315213  0.27748885    -0.23400
H259        H  0.57105236  0.67063050  0.31722943     0.17700
C260        C  0.52627677  0.57126559  0.31547864     0.25700
C261        C  0.49783037  0.53400531  0.33802423    -0.12000
C262        C  0.44718392  0.52836209  0.32661414    -0.26000
C263        C  0.42475968  0.56291331  0.29428693     0.36600
C264        C  0.45335596  0.59989681  0.27136252    -0.27600
F265        F  0.57550900  0.57371207  0.32572997    -0.19700
H266        H  0.51602790  0.50802998  0.36292114     0.15900
F267        F  0.37610627  0.55890268  0.28200808    -0.23500
H268        H  0.43558272  0.62513315  0.24542988     0.17800
C269        C  0.55367138  0.09478897  0.24018340    -0.27500
C270        C  0.50169049  0.09850962  0.23632201     0.06100
C271        C  0.47669196  0.06533025  0.20462225     0.25700
C272        C  0.50292280  0.02904177  0.17820476    -0.12000
C273        C  0.55469344  0.02444567  0.18280473    -0.25900
C274        C  0.58000405  0.05812258  0.21384556     0.36500
C275        C  0.47383629  0.13795475  0.26376654     0.06100
F276        F  0.42649861  0.06648049  0.20071091    -0.19700
H277        H  0.48231950  0.00322610  0.15527408     0.15900
F278        F  0.62969577  0.05398194  0.22097696    -0.23400
H279        H  0.57396188  0.12022657  0.26378060     0.17700
C280        C  0.48256195  0.14774153  0.31450878     0.25700
C281        C  0.45815401  0.18732005  0.33834914    -0.12000
C282        C  0.42489215  0.21795131  0.31202134    -0.26000
C283        C  0.41448411  0.20661935  0.26212405     0.36600
C284        C  0.43875869  0.16723885  0.23838231    -0.27600
F285        F  0.51502200  0.11950505  0.34093460    -0.19700
H286        H  0.46716084  0.19553502  0.37668522     0.15900
F287        F  0.38174168  0.23456268  0.23576360    -0.23500
H288        H  0.43139545  0.16084869  0.19938777     0.17800
C289        C  0.92550652  0.69285580  0.01720954    -0.27500
C290        C  0.89777920  0.73043862  0.99389899     0.08500
C291        C  0.90686418  0.74147634  0.94361116     0.25700
C292        C  0.94408089  0.71611573  0.91763385    -0.12000
C293        C  0.97316879  0.67988109  0.94158132    -0.25900
C294        C  0.96286544  0.66778897  0.99146379     0.36500
C295        C  0.85884524  0.75708828  0.02211701     0.06100
F296        F  0.87992177  0.77688192  0.91969061    -0.19700
H297        H  0.95170388  0.72653675  0.87950344     0.15900
F298        F  0.98977758  0.63263637  0.01582591    -0.23400
H299        H  0.91902621  0.68375122  0.05588797     0.17700
C300        C  0.82230822  0.73015142  0.04761974     0.25700
C301        C  0.78411430  0.75505078  0.07203731    -0.12000
C302        C  0.78088807  0.80739859  0.07107973    -0.26000
C303        C  0.81887147  0.83453890  0.04751241     0.36600
C304        C  0.85750770  0.80941004  0.02323126    -0.27600
F305        F  0.82188134  0.67960535  0.04658382    -0.19700
H306        H  0.75565201  0.73290592  0.08984640     0.15900
F307        F  0.81760035  0.88502446  0.04581318    -0.23500
H308        H  0.88595512  0.83078128  0.00448361     0.17800
C309        C  0.32316629  0.76495655  0.95780425    -0.27500
C310        C  0.35767220  0.73669007  0.98467782     0.06100
C311        C  0.35367544  0.68439969  0.98432481     0.25700
C312        C  0.31490618  0.66120844  0.95829297    -0.12000
C313        C  0.27946557  0.68983789  0.93254281    -0.25900
C314        C  0.28473445  0.74209064  0.93193079     0.36500
C315        C  0.39769427  0.76273372  0.01213535     0.06100
F316        F  0.38713762  0.65584752  0.00908813    -0.19700
H317        H  0.31147277  0.62107417  0.95997330     0.15900
F318        F  0.25189629  0.77155392  0.90736395    -0.23400
H319        H  0.32535893  0.80522428  0.95769062     0.17700
C320        C  0.42697267  0.79844387  0.98774363     0.25700
C321        C  0.46438211  0.82340453  0.01328194    -0.12000
C322        C  0.47368227  0.81343843  0.06370189    -0.26000
C323        C  0.44349455  0.77876270  0.08869804     0.36600
C324        C  0.40586326  0.75357244  0.06295821    -0.27600
F325        F  0.42080743  0.80771552  0.93851714    -0.19700
H326        H  0.48743575  0.84944266  0.99298606     0.15900
F327        F  0.45220785  0.76701585  0.13699623    -0.23500
H328        H  0.38329431  0.72664719  0.08260221     0.17800
loop_ 
_geom_bond_atom_site_label_1 
_geom_bond_atom_site_label_2 
_geom_bond_distance 
_geom_bond_site_symmetry_2 
_ccdc_geom_bond_type 
Fe1          O17   2.040       .  S
Fe1           O7   2.123       .  S
Fe1          O14   2.116       .  S
Fe1           O6   2.043       .  S
Fe1          O12   1.920       .  S
Fe2           O5   2.042       .  S
Fe2           O9   2.123       .  S
Fe2          O13   2.029       .  S
Fe2          O18   2.119       .  S
Fe2          O12   1.924       .  S
Fe3          O21   2.119       .  S
Fe3           O8   2.026       .  S
Fe3          O15   2.030       .  S
Fe3           O4   2.116       .  S
Fe3          O12   1.919       .  S
O4           C11   1.279       .  A
O5           C19   1.267       .  A
O6           C11   1.266       .  A
O7           C10   1.281       .  A
O8           C20   1.265       .  A
O9           C22   1.280       .  A
C10          O15   1.266       .  A
C10         C322   1.480       .  S
C11         C253   1.486       .  S
O13          C16   1.265       .  A
O14          C16   1.281       .  A
C16         C213   1.480       .  S
O17          C22   1.267       .  A
O18          C20   1.280       .  A
C19          O21   1.280       .  A
C19         C242   1.482   1_554  S
C20         C302   1.482       .  S
C22         C273   1.486   1_565  S
Fe23         O39   2.039       .  S
Fe23         O29   2.122       .  S
Fe23         O36   2.123       .  S
Fe23         O28   2.045       .  S
Fe23         O34   1.925       .  S
Fe24         O27   2.043       .  S
Fe24         O31   2.122       .  S
Fe24         O35   2.035       .  S
Fe24         O40   2.120       .  S
Fe24         O34   1.926       .  S
Fe25         O43   2.104       .  S
Fe25         O30   2.033       .  S
Fe25         O37   2.028       .  S
Fe25         O26   2.104       .  S
Fe25         O34   1.924       .  S
O26          C33   1.276       .  A
O27          C41   1.267       .  A
O28          C33   1.267       .  A
O29          C32   1.282       .  A
O30          C42   1.266       .  A
O31          C44   1.280       .  A
C32          O37   1.266       .  A
C32         C162   1.483   1_655  S
C33         C182   1.484       .  S
O35          C38   1.266       .  A
O36          C38   1.281       .  A
C38         C233   1.484       .  S
O39          C44   1.266       .  A
O40          C42   1.280       .  A
C41          O43   1.277       .  A
C41         C222   1.478       .  S
C42         C133   1.478       .  S
C44         C202   1.493   1_545  S
Fe45         O61   2.039       .  S
Fe45         O51   2.115       .  S
Fe45         O58   2.118       .  S
Fe45         O50   2.038       .  S
Fe45         O56   1.924       .  S
Fe46         O49   2.047       .  S
Fe46         O53   2.121       .  S
Fe46         O57   2.043       .  S
Fe46         O62   2.115       .  S
Fe46         O56   1.923       .  S
Fe47         O65   2.112       .  S
Fe47         O52   2.028       .  S
Fe47         O59   2.034       .  S
Fe47         O48   2.107       .  S
Fe47         O56   1.924       .  S
O48          C55   1.277       .  A
O49          C63   1.269       .  A
O50          C55   1.266       .  A
O51          C54   1.280       .  A
O52          C64   1.265       .  A
O53          C66   1.281       .  A
C54          O59   1.266       .  A
C54         C153   1.479       .  S
C55         C122   1.477       .  S
O57          C60   1.267       .  A
O58          C60   1.280       .  A
C60         C262   1.485       .  S
O61          C66   1.266       .  A
O62          C64   1.280       .  A
C63          O65   1.278       .  A
C63         C282   1.482       .  S
C64         C142   1.483       .  S
C66          C93   1.478       .  S
Fe67         O83   2.036       .  S
Fe67         O73   2.125       .  S
Fe67         O80   2.128       .  S
Fe67         O72   2.036       .  S
Fe67         O78   1.921       .  S
Fe68         O71   2.038       .  S
Fe68         O75   2.105       .  S
Fe68         O79   2.031       .  S
Fe68         O84   2.111       .  S
Fe68         O78   1.923       .  S
Fe69         O87   2.129       .  S
Fe69         O74   2.031       .  S
Fe69         O81   2.028       .  S
Fe69         O70   2.119       .  S
Fe69         O78   1.916       .  S
O70          C77   1.281       .  A
O71          C85   1.266       .  A
O72          C77   1.266       .  A
O73          C76   1.281       .  A
O74          C86   1.264       .  A
O75          C88   1.276       .  A
C76          O81   1.265       .  A
C76         C313   1.485       .  S
C77         C102   1.490   1_556  S
O79          C82   1.266       .  A
O80          C82   1.283       .  A
C82         C173   1.483       .  S
O83          C88   1.264       .  A
O84          C86   1.278       .  A
C85          O87   1.282       .  A
C85         C193   1.479       .  S
C86         C293   1.475   1_455  S
C88         C113   1.475       .  S
C89          C90   1.405       .  A
C89          C94   1.401       .  A
C89          H99   1.084       .  S
C90          C95   1.483       .  S
C90          C91   1.405       .  A
C91          C92   1.399       .  A
C91          F96   1.357       .  S
C92          C93   1.406       .  A
C92          H97   1.084       .  S
C93          C94   1.407       .  A
C94          F98   1.357       .  S
C95         C100   1.406       .  A
C95         C104   1.401       .  A
C100        C101   1.401       .  A
C100        F105   1.357       .  S
C101        C102   1.407       .  A
C101        H106   1.082       .  S
C102        C103   1.415       .  A
C103        C104   1.398       .  A
C103        F107   1.358   1_554  S
C104        H108   1.083       .  S
C109        C110   1.406       .  A
C109        C114   1.397       .  A
C109        H119   1.083       .  S
C110        C115   1.485       .  S
C110        C111   1.407       .  A
C111        C112   1.396       .  A
C111        F116   1.357       .  S
C112        C113   1.405       .  A
C112        H117   1.084       .  S
C113        C114   1.406       .  A
C114        F118   1.358       .  S
C115        C120   1.410       .  A
C115        C124   1.403       .  A
C120        C121   1.399       .  A
C120        F125   1.358       .  S
C121        C122   1.404       .  A
C121        H126   1.083       .  S
C122        C123   1.408       .  A
C123        C124   1.395       .  A
C123        F127   1.358       .  S
C124        H128   1.082       .  S
C129        C130   1.401       .  A
C129        C134   1.394       .  A
C129        H139   1.083       .  S
C130        C135   1.478       .  S
C130        C131   1.406       .  A
C131        C132   1.401       .  A
C131        F136   1.358       .  S
C132        C133   1.406       .  A
C132        H137   1.083       .  S
C133        C134   1.409       .  A
C134        F138   1.358       .  S
C135        C140   1.402       .  A
C135        C144   1.405       .  A
C140        C141   1.394       .  A
C140        F145   1.358       .  S
C141        C142   1.410       .  A
C141        H146   1.083       .  S
C142        C143   1.409       .  A
C143        C144   1.401       .  A
C143        F147   1.357       .  S
C144        H148   1.083       .  S
C149        C150   1.402       .  A
C149        C154   1.395       .  A
C149        H159   1.084       .  S
C150        C155   1.481       .  S
C150        C151   1.406       .  A
C151        C152   1.401       .  A
C151        F156   1.357       .  S
C152        C153   1.406       .  A
C152        H157   1.083       .  S
C153        C154   1.409       .  A
C154        F158   1.358       .  S
C155        C160   1.402       .  A
C155        C164   1.406       .  A
C160        C161   1.393       .  A
C160        F165   1.358       .  S
C161        C162   1.408       .  A
C161        H166   1.083   1_455  S
C162        C163   1.409       .  A
C163        C164   1.403       .  A
C163        F167   1.357       .  S
C164        H168   1.083       .  S
C169        C170   1.401       .  A
C169        C174   1.396   1_655  A
C169        H179   1.082       .  S
C170        C175   1.482       .  S
C170        C171   1.408   1_655  A
C171        C172   1.403       .  A
C171        F176   1.358       .  S
C172        C173   1.406       .  A
C172        H177   1.082       .  S
C173        C174   1.411       .  A
C174        F178   1.358   1_455  S
C175        C180   1.405       .  A
C175        C184   1.404       .  A
C180        C181   1.397       .  A
C180        F185   1.357       .  S
C181        C182   1.407       .  A
C181        H186   1.084       .  S
C182        C183   1.411       .  A
C183        C184   1.401       .  A
C183        F187   1.357       .  S
C184        H188   1.084       .  S
C189        C190   1.405       .  A
C189        C194   1.401       .  A
C189        H199   1.082       .  S
C190        C195   1.489       .  S
C190        C191   1.408       .  A
C191        C192   1.402       .  A
C191        F196   1.357   1_455  S
C192        C193   1.404       .  A
C192        H197   1.083       .  S
C193        C194   1.407       .  A
C194        F198   1.358       .  S
C195        C200   1.403       .  A
C195        C204   1.408   1_455  A
C200        C201   1.397       .  A
C200        F205   1.358       .  S
C201        C202   1.411   1_455  A
C201        H206   1.083   1_565  S
C202        C203   1.410       .  A
C203        C204   1.405       .  A
C203        F207   1.357       .  S
C204        H208   1.083       .  S
C209        C210   1.406       .  A
C209        C214   1.399       .  A
C209        H219   1.084   1_565  S
C210        C215   1.482   1_565  S
C210        C211   1.404       .  A
C211        C212   1.396       .  A
C211        F216   1.358       .  S
C212        C213   1.408       .  A
C212        H217   1.084       .  S
C213        C214   1.407       .  A
C214        F218   1.357       .  S
C215        C220   1.407       .  A
C215        C224   1.403   1_545  A
C220        C221   1.398       .  A
C220        F225   1.358       .  S
C221        C222   1.405       .  A
C221        H226   1.083       .  S
C222        C223   1.408       .  A
C223        C224   1.397   1_545  A
C223        F227   1.358   1_545  S
C224        H228   1.083       .  S
C229        C230   1.409       .  A
C229        C234   1.404       .  A
C229        H239   1.083   1_545  S
C230        C235   1.492   1_545  S
C230        C231   1.407       .  A
C231        C232   1.396       .  A
C231        F236   1.357       .  S
C232        C233   1.407       .  A
C232        H237   1.084       .  S
C233        C234   1.407       .  A
C234        F238   1.357       .  S
C235        C240   1.410       .  A
C235        C244   1.405   1_565  A
C240        C241   1.403       .  A
C240        F245   1.358       .  S
C241        C242   1.406       .  A
C241        H246   1.083       .  S
C242        C243   1.407       .  A
C243        C244   1.398   1_565  A
C243        F247   1.358   1_565  S
C244        H248   1.083       .  S
C249        C250   1.404       .  A
C249        C254   1.401       .  A
C249        H259   1.082       .  S
C250        C255   1.489       .  S
C250        C251   1.408       .  A
C251        C252   1.400       .  A
C251        F256   1.357       .  S
C252        C253   1.405       .  A
C252        H257   1.082       .  S
C253        C254   1.411       .  A
C254        F258   1.358       .  S
C255        C260   1.406       .  A
C255        C264   1.407       .  A
C260        C261   1.400       .  A
C260        F265   1.357       .  S
C261        C262   1.408       .  A
C261        H266   1.084       .  S
C262        C263   1.407       .  A
C263        C264   1.401       .  A
C263        F267   1.357       .  S
C264        H268   1.084       .  S
C269        C270   1.408       .  A
C269        C274   1.405       .  A
C269        H279   1.082       .  S
C270        C275   1.493       .  S
C270        C271   1.407       .  A
C271        C272   1.397       .  A
C271        F276   1.357       .  S
C272        C273   1.406       .  A
C272        H277   1.083       .  S
C273        C274   1.409       .  A
C274        F278   1.358       .  S
C275        C280   1.411       .  A
C275        C284   1.406       .  A
C280        C281   1.404       .  A
C280        F285   1.358       .  S
C281        C282   1.407       .  A
C281        H286   1.083       .  S
C282        C283   1.405       .  A
C283        C284   1.397       .  A
C283        F287   1.357       .  S
C284        H288   1.082       .  S
C289        C290   1.403   1_554  A
C289        C294   1.394   1_554  A
C289        H299   1.083       .  S
C290        C295   1.479   1_556  S
C290        C291   1.406       .  A
C291        C292   1.399       .  A
C291        F296   1.357       .  S
C292        C293   1.405       .  A
C292        H297   1.083       .  S
C293        C294   1.408       .  A
C294        F298   1.358   1_556  S
C295        C300   1.402       .  A
C295        C304   1.406       .  A
C300        C301   1.391       .  A
C300        F305   1.358       .  S
C301        C302   1.409       .  A
C301        H306   1.083       .  S
C302        C303   1.408       .  A
C303        C304   1.401       .  A
C303        F307   1.357       .  S
C304        H308   1.083       .  S
C309        C310   1.400       .  A
C309        C314   1.393       .  A
C309        H319   1.083       .  S
C310        C315   1.485   1_556  S
C310        C311   1.409       .  A
C311        C312   1.405       .  A
C311        F316   1.357   1_556  S
C312        C313   1.407       .  A
C312        H317   1.083       .  S
C313        C314   1.411       .  A
C314        F318   1.358       .  S
C315        C320   1.405   1_554  A
C315        C324   1.407       .  A
C320        C321   1.394   1_556  A
C320        F325   1.358       .  S
C321        C322   1.405       .  A
C321        H326   1.084   1_554  S
C322        C323   1.408       .  A
C323        C324   1.404       .  A
C323        F327   1.358       .  S
C324        H328   1.083       .  S
