geometry optimzed in LAMMPS
_audit_creation_date              2020-11-30 
_audit_creation_method            'lammps2cif' 
_symmetry_space_group_name_H-M    'P1' 
_symmetry_Int_Tables_number       1 
_symmetry_cell_setting            triclinic 
loop_ 
_symmetry_equiv_pos_as_xyz 
  x,y,z 
_cell_length_a                    27.09866746 
_cell_length_b                    26.83867018034275 
_cell_length_c                    26.724485823814522 
_cell_angle_alpha                 90.04283770799601 
_cell_angle_beta                  90.15982463340514 
_cell_angle_gamma                 90.02178694625856 
loop_ 
_atom_site_label 
_atom_site_type_symbol 
_atom_site_fract_x 
_atom_site_fract_y 
_atom_site_fract_z 
_atom_site_charge 
Fe1        Fe  0.57636525  0.87088964  0.17495448     1.65800
Fe2        Fe  0.67538499  0.92213685  0.12300024     1.73200
Fe3        Fe  0.62446928  0.82131085  0.07179481     1.54400
O4          O  0.59549632  0.76638277  0.12026097    -0.82300
O5          O  0.65444257  0.94452594  0.05313381    -0.80600
O6          O  0.59845782  0.80128861  0.19573427    -0.84800
O7          O  0.52206289  0.84011141  0.12787211    -0.79600
O8          O  0.69381646  0.79879871  0.09111678    -0.81400
O9          O  0.62768209  0.97633722  0.15384701    -0.84200
C10         C  0.51828852  0.83594157  0.08043674     0.96600
C11         C  0.59228416  0.76351590  0.16793151     1.04000
O12         O  0.62537702  0.87155135  0.12312434    -1.13100
O13         O  0.69784627  0.90130821  0.19279463    -0.75600
O14         O  0.62408532  0.90193201  0.22882811    -0.79100
O15         O  0.55481380  0.84237397  0.05163986    -0.79800
C16         C  0.67080606  0.90755048  0.23079641     0.95500
O17         O  0.55349460  0.94061318  0.15521304    -0.77700
O18         O  0.72901699  0.87381291  0.09259193    -0.82900
C19         C  0.65949977  0.91716144  0.01491102     0.98100
C20         C  0.73149374  0.82647464  0.08753235     1.04000
O21         O  0.65400856  0.86985067  0.01697962    -0.78500
C22         C  0.58091286  0.97860885  0.15998924     1.02300
Fe23       Fe  0.92369853  0.12872082  0.67544435     1.65800
Fe24       Fe  0.82557379  0.07606724  0.62246546     1.73200
Fe25       Fe  0.87568700  0.17766917  0.57200854     1.54400
O26         O  0.90408500  0.23283544  0.62075931    -0.82300
O27         O  0.84752605  0.05452231  0.55289385    -0.80600
O28         O  0.90129263  0.19814866  0.69618286    -0.84800
O29         O  0.97830794  0.15923071  0.62813140    -0.79600
O30         O  0.80625214  0.19890644  0.59117495    -0.81400
O31         O  0.87350345  0.02238377  0.65406660    -0.84200
C32         C  0.98215970  0.16335540  0.58061748     0.96600
C33         C  0.90722783  0.23585420  0.66843426     1.04000
O34         O  0.87496296  0.12739611  0.62326178    -1.13100
O35         O  0.80204347  0.09619366  0.69209117    -0.75600
O36         O  0.87544030  0.09827807  0.72938186    -0.79100
O37         O  0.94544554  0.15755965  0.55174389    -0.79800
C38         C  0.82865169  0.09229936  0.73094576     0.95500
O39         O  0.94697218  0.05928312  0.65598901    -0.77700
O40         O  0.77174561  0.12359030  0.59098587    -0.82900
C41         C  0.84180872  0.08178897  0.51465664     0.98100
C42         C  0.76903541  0.17087412  0.58575736     1.04000
O43         O  0.84683965  0.12911553  0.51685670    -0.78500
C44         C  0.92023065  0.02091092  0.66091179     1.02300
Fe45       Fe  0.32601375  0.42488221  0.37764625     1.65800
Fe46       Fe  0.42534816  0.37494643  0.32460516     1.73200
Fe47       Fe  0.37628879  0.32267742  0.42587155     1.54400
O48         O  0.34627896  0.37000478  0.48162870    -0.82300
O49         O  0.40592216  0.30500316  0.30180410    -0.80600
O50         O  0.34845799  0.44549147  0.44753248    -0.84800
O51         O  0.27267568  0.37635359  0.40842712    -0.79600
O52         O  0.44539497  0.34327794  0.44774974    -0.81400
O53         O  0.37641746  0.40515771  0.27111503    -0.84200
C54         C  0.26991587  0.32892487  0.41226620     0.96600
C55         C  0.34205375  0.41738544  0.48497981     1.04000
O56         O  0.37585445  0.37402700  0.37585079    -1.13100
O57         O  0.44687754  0.44461674  0.34590791    -0.75600
O58         O  0.37276889  0.47999434  0.34684268    -0.79100
O59         O  0.30703909  0.30120249  0.40497885    -0.79800
C60         C  0.41953107  0.48254708  0.34125794     0.95500
O61         O  0.30274207  0.40515563  0.30792075    -0.77700
O62         O  0.47982790  0.34501172  0.37218193    -0.82900
C63         C  0.41216151  0.26694342  0.32912233     0.98100
C64         C  0.48269515  0.33923494  0.41956689     1.04000
O65         O  0.40656589  0.26888303  0.37662495    -0.78500
C66         C  0.32951925  0.41032532  0.26952548     1.02300
Fe67       Fe  0.17530335  0.57620299  0.87515758     1.65800
Fe68       Fe  0.07462416  0.62672170  0.82480210     1.73200
Fe69       Fe  0.12374259  0.67584202  0.92783984     1.54400
O70         O  0.15476884  0.62774276  0.98170237    -0.82300
O71         O  0.09412014  0.69745828  0.80475374    -0.80600
O72         O  0.15561496  0.55334059  0.94508891    -0.84800
O73         O  0.22833099  0.62499299  0.90587333    -0.79600
O74         O  0.05548510  0.65308465  0.94947045    -0.81400
O75         O  0.12279385  0.59824274  0.76927132    -0.84200
C76         C  0.23004172  0.67219984  0.91215392     0.96600
C77         C  0.16014336  0.58050062  0.98362503     1.04000
O78         O  0.12460416  0.62619171  0.87587745    -1.13100
O79         O  0.05373903  0.55622516  0.84356249    -0.75600
O80         O  0.12819733  0.52120002  0.84434900    -0.79100
O81         O  0.19213881  0.69940936  0.90745566    -0.79800
C82         C  0.08133374  0.51841836  0.83911251     0.95500
O83         O  0.19678555  0.59768053  0.80538253    -0.77700
O84         O  0.02018216  0.65472318  0.87425799    -0.82900
C85         C  0.08757401  0.73433232  0.83357276     0.98100
C86         C  0.01772927  0.65826599  0.92199862     1.04000
O87         O  0.09225771  0.73061344  0.88100218    -0.78500
C88         C  0.16968548  0.59294712  0.76700789     1.02300
C89         C  0.22737534  0.55784829  0.10552145    -0.11400
C90         C  0.22374632  0.50573289  0.10963468     0.05700
C91         C  0.19423202  0.47954437  0.07537294    -0.10200
C92         C  0.17102639  0.50450872  0.03607388    -0.11800
C93         C  0.17641541  0.55629655  0.03047618    -0.01600
C94         C  0.20366553  0.58298602  0.06639175    -0.10700
C95         C  0.25207749  0.47837207  0.14827523     0.05700
H96         H  0.19091284  0.43938155  0.07762802     0.07600
H97         H  0.15033181  0.48296716  0.00892056     0.11100
H98         H  0.20884419  0.62285205  0.06274687     0.11400
H99         H  0.24936659  0.57894383  0.13196907     0.07700
C100        C  0.30198000  0.48975429  0.15710493    -0.11400
C101        C  0.32851045  0.46460738  0.19421097    -0.10700
C102        C  0.30532483  0.42822379  0.22360037    -0.01600
C103        C  0.25584868  0.41586223  0.21388277    -0.11800
C104        C  0.22958479  0.44037907  0.17622668    -0.10200
H105        H  0.32033604  0.51842191  0.13555916     0.07700
H106        H  0.36629148  0.47551312  0.20174632     0.11400
H107        H  0.23706107  0.38831862  0.23652535     0.11100
H108        H  0.19118608  0.43092140  0.17017068     0.07700
C109        C  0.31165107  0.51715501  0.57919449    -0.11400
C110        C  0.27295699  0.49498226  0.60609091     0.05700
C111        C  0.26129957  0.44472514  0.59655032    -0.10200
C112        C  0.28673963  0.41783503  0.55974170    -0.11800
C113        C  0.32383657  0.44093469  0.53138299    -0.01600
C114        C  0.33655275  0.49055193  0.54209833    -0.10700
C115        C  0.24514603  0.52435272  0.64396315     0.05700
H116        H  0.23213268  0.42640435  0.61717045     0.07600
H117        H  0.27549974  0.37995128  0.55152071     0.05500
H118        H  0.36460271  0.50941114  0.52037271     0.11400
H119        H  0.32140640  0.55578772  0.58544854     0.07700
C120        C  0.27040375  0.55617114  0.67699750    -0.11400
C121        C  0.24510883  0.58141174  0.71476439    -0.10700
C122        C  0.19380455  0.57575623  0.72034746    -0.01600
C123        C  0.16801450  0.54614023  0.68564615    -0.11800
C124        C  0.19348456  0.52046007  0.64796260    -0.10200
H125        H  0.31014990  0.55990569  0.67505304     0.07700
H126        H  0.26609709  0.60375807  0.74101972     0.11400
H127        H  0.12860567  0.54055199  0.68934529     0.11100
H128        H  0.17290951  0.49689838  0.62248288     0.07700
C129        C  0.59894328  0.26557889  0.44114709    -0.11400
C130        C  0.60673184  0.27317794  0.49262066     0.05700
C131        C  0.57657694  0.30710642  0.51834561    -0.10200
C132        C  0.53798259  0.33118130  0.49363050    -0.11800
C133        C  0.52910816  0.32225081  0.44262160    -0.01600
C134        C  0.56059394  0.29012537  0.41625450    -0.10700
C135        C  0.64580286  0.24549718  0.51967421     0.05700
H136        H  0.58157841  0.31351024  0.55800530     0.07600
H137        H  0.51390471  0.35548974  0.51486192     0.11100
H138        H  0.55395794  0.28193742  0.37716036     0.11400
H139        H  0.62214396  0.24012714  0.42027861     0.07700
C140        C  0.65353360  0.19446058  0.51059647    -0.11400
C141        C  0.69171222  0.16899168  0.53488242    -0.10700
C142        C  0.72300155  0.19430217  0.56825157    -0.01600
C143        C  0.71432055  0.24490109  0.57837829    -0.11800
C144        C  0.67596531  0.27017031  0.55454858    -0.10200
H145        H  0.63038505  0.17441540  0.48433341     0.07700
H146        H  0.69827587  0.13024636  0.52569447     0.11400
H147        H  0.73827443  0.26536906  0.60357851     0.11100
H148        H  0.67107032  0.30951507  0.56202658     0.07700
C149        C  0.17803017  0.22912382  0.44693761    -0.11400
C150        C  0.14729384  0.25453964  0.48063578     0.05700
C151        C  0.15451859  0.30598810  0.48788478    -0.10200
C152        C  0.19252408  0.33109264  0.46302440    -0.11800
C153        C  0.22427555  0.30515707  0.43074649    -0.01600
C154        C  0.21618135  0.25409054  0.42244669    -0.10700
C155        C  0.10788710  0.22742598  0.50805438     0.05700
H156        H  0.13098982  0.32675912  0.51303721     0.07600
H157        H  0.19844126  0.37027068  0.47082535     0.11100
H158        H  0.24035812  0.23306793  0.39811796     0.11400
H159        H  0.17368395  0.18948116  0.44077131     0.07700
C160        C  0.07905500  0.19133068  0.48347227    -0.11400
C161        C  0.03983365  0.16822836  0.50811353    -0.10700
C162        C  0.02896985  0.18017563  0.55806347    -0.01600
C163        C  0.05914013  0.21444922  0.58348031    -0.11800
C164        C  0.09807914  0.23803921  0.55863247    -0.10200
H165        H  0.08545203  0.18247731  0.44450944     0.07700
H166        H  0.01689040  0.14217265  0.48756116     0.11400
H167        H  0.05105322  0.22493997  0.62172441     0.11100
H168        H  0.12012527  0.26511413  0.57881814     0.07700
C169        C  0.05428695  0.40261247  0.76378117    -0.11400
C170        C  0.00388757  0.39526373  0.77420524     0.05700
C171        C  0.98154007  0.42460220  0.81129748    -0.10200
C172        C  0.00802996  0.46249126  0.83513055    -0.11800
C173        C  0.05764232  0.47150850  0.82288587    -0.01600
C174        C  0.08099987  0.44025397  0.78811159    -0.10700
C175        C  0.97444079  0.35800918  0.74570105     0.05700
H176        H  0.94283920  0.41990706  0.82019577     0.07600
H177        H  0.98911473  0.48620752  0.86163724     0.11100
H178        H  0.11901712  0.44685105  0.77747899     0.11400
H179        H  0.07274271  0.37993463  0.73607661     0.07700
C180        C  0.98074022  0.35244298  0.69374934    -0.11400
C181        C  0.95543668  0.31519672  0.66744783    -0.10700
C182        C  0.92372403  0.28247163  0.69274604    -0.01600
C183        C  0.91531216  0.28982647  0.74412670    -0.11800
C184        C  0.94022166  0.32730662  0.77029245    -0.10200
H185        H  0.00604835  0.37631525  0.67358133     0.07700
H186        H  0.96302046  0.31009833  0.62803835     0.11400
H187        H  0.89110569  0.26504087  0.76463161     0.11100
H188        H  0.93443135  0.33069629  0.81018692     0.07700
C189        C  0.94186583  0.90145294  0.73291227    -0.11400
C190        C  0.99367674  0.89801993  0.73169759     0.05700
C191        C  0.02030091  0.93271867  0.70325292    -0.10200
C192        C  0.99596483  0.97084998  0.67777705    -0.11800
C193        C  0.94430329  0.97519448  0.67992785    -0.01600
C194        C  0.91737043  0.93958490  0.70704892    -0.10700
C195        C  0.02022165  0.85845980  0.75974841     0.05700
H196        H  0.06022544  0.93131996  0.70194562     0.07600
H197        H  0.01782208  0.99795148  0.65762235     0.11100
H198        H  0.87761310  0.94247012  0.71009707     0.11400
H199        H  0.92037060  0.87484915  0.75408943     0.07700
C200        C  0.00653227  0.84585888  0.80887256    -0.11400
C201        C  0.03105043  0.80763408  0.83447746    -0.10700
C202        C  0.06910766  0.78088552  0.81109627    -0.01600
C203        C  0.08349951  0.79420629  0.76252063    -0.11800
C204        C  0.05960862  0.83285555  0.73728266    -0.10200
H205        H  0.97665788  0.86530491  0.82729532     0.07700
H206        H  0.01857700  0.79727641  0.87153795     0.11400
H207        H  0.11232035  0.77368981  0.74352647     0.11100
H208        H  0.07077675  0.84149054  0.69938699     0.07700
C209        C  0.80265000  0.98042889  0.42532327    -0.11400
C210        C  0.77386372  0.00683499  0.39066702     0.05700
C211        C  0.77164062  0.05909658  0.39408583    -0.10200
C212        C  0.79672765  0.08425976  0.43247079    -0.11800
C213        C  0.82398285  0.05745940  0.46830450    -0.01600
C214        C  0.82731733  0.00538718  0.46368509    -0.10700
C215        C  0.74605694  0.97938509  0.35158659     0.05700
H216        H  0.75007347  0.08035447  0.36742975     0.07600
H217        H  0.79284487  0.12431738  0.43550344     0.11100
H218        H  0.84765463  0.98360657  0.49089711     0.11400
H219        H  0.80470513  0.94015243  0.42380829     0.07700
C220        C  0.76891724  0.94061679  0.32498835    -0.11400
C221        C  0.74340762  0.91514920  0.28745226    -0.10700
C222        C  0.69424277  0.92731599  0.27638164    -0.01600
C223        C  0.67068132  0.96488104  0.30405144    -0.11800
C224        C  0.69652825  0.99102764  0.34109517    -0.10200
H225        H  0.80711139  0.93106165  0.33216027     0.07700
H226        H  0.76251121  0.88682807  0.26607770     0.11400
H227        H  0.63311462  0.97570126  0.29532378     0.11100
H228        H  0.67792100  0.02042830  0.36141575     0.07700
C229        C  0.68649839  0.01713144  0.91967246    -0.11400
C230        C  0.72736754  0.99688421  0.89452660     0.05700
C231        C  0.74193842  0.94781274  0.90583057    -0.10200
C232        C  0.71704406  0.92018876  0.94236512    -0.11800
C233        C  0.67757970  0.94132066  0.96884229    -0.01600
C234        C  0.66220427  0.98983091  0.95676374    -0.10700
C235        C  0.75433442  0.02655638  0.85626830     0.05700
H236        H  0.77281192  0.93089615  0.88663804     0.07600
H237        H  0.73037333  0.88329409  0.95184230     0.11100
H238        H  0.63236881  0.00720270  0.97723390     0.11400
H239        H  0.67444358  0.05484692  0.91201152     0.07700
C240        C  0.72817262  0.05552675  0.82140274    -0.11400
C241        C  0.75286782  0.07965170  0.78250736    -0.10700
C242        C  0.80439018  0.07576550  0.77770365    -0.01600
C243        C  0.83098056  0.04933630  0.81426534    -0.11800
C244        C  0.80616292  0.02480250  0.85305238    -0.10200
H245        H  0.68830791  0.05760890  0.82271953     0.07700
H246        H  0.73132088  0.09972970  0.75491932     0.11400
H247        H  0.87063249  0.04534478  0.81137945     0.11100
H248        H  0.82743932  0.00355730  0.87994853     0.07700
C249        C  0.51933219  0.57509386  0.31045713    -0.11400
C250        C  0.49637796  0.60402777  0.27335800     0.05700
C251        C  0.44582449  0.59677236  0.26360112    -0.10200
C252        C  0.41933268  0.55977324  0.28895996    -0.11800
C253        C  0.44318325  0.52900926  0.32397422    -0.01600
C254        C  0.49311119  0.53779038  0.33522250    -0.10700
C255        C  0.52536641  0.64131093  0.24482429     0.05700
H256        H  0.42702971  0.61916926  0.23575037     0.07600
H257        H  0.38109875  0.55325959  0.27901440     0.11100
H258        H  0.51244764  0.51435155  0.36180217     0.11400
H259        H  0.55817354  0.57982540  0.31877141     0.07700
C260        C  0.55829825  0.67313710  0.26986789    -0.11400
C261        C  0.58308839  0.71059186  0.24390567    -0.10700
C262        C  0.57573303  0.71695385  0.19220597    -0.01600
C263        C  0.54524689  0.68314666  0.16647283    -0.11800
C264        C  0.52002888  0.64580318  0.19262713    -0.10200
H265        H  0.56322995  0.67051666  0.31003315     0.07700
H266        H  0.60632822  0.73608369  0.26474735     0.11400
H267        H  0.53854487  0.68740618  0.12669792     0.11100
H268        H  0.49561685  0.62107226  0.17226950     0.07700
C269        C  0.55808760  0.09442115  0.23693055    -0.11400
C270        C  0.50769222  0.10304365  0.22767465     0.05700
C271        C  0.48305675  0.07325988  0.19232171    -0.10200
C272        C  0.50767441  0.03436121  0.16819479    -0.11800
C273        C  0.55775599  0.02501944  0.17816681    -0.01600
C274        C  0.58302196  0.05603152  0.21200847    -0.10700
C275        C  0.48065463  0.14294462  0.25464234     0.05700
H276        H  0.44420244  0.07900687  0.18461085     0.07600
H277        H  0.48721996  0.01069253  0.14271384     0.11100
H278        H  0.62139844  0.04901782  0.22110096     0.11400
H279        H  0.57802136  0.11715075  0.26364805     0.07700
C280        C  0.48484300  0.14830610  0.30683904    -0.11400
C281        C  0.45994066  0.18677312  0.33178673    -0.10700
C282        C  0.43096119  0.22101756  0.30483397    -0.01600
C283        C  0.42613079  0.21487419  0.25277012    -0.11800
C284        C  0.45037740  0.17611895  0.22803979    -0.10200
H285        H  0.50764101  0.12288395  0.32828183     0.07700
H286        H  0.46510989  0.19102684  0.37172344     0.11400
H287        H  0.40450902  0.24092040  0.23083816     0.11100
H288        H  0.44670394  0.17300147  0.18782836     0.07700
C289        C  0.89774844  0.72550377  0.94619043    -0.11400
C290        C  0.89394470  0.72158999  0.99853345     0.05700
C291        C  0.92771613  0.69145860  0.02442108    -0.10200
C292        C  0.96621909  0.66808881  0.99884676    -0.11800
C293        C  0.97145921  0.67390336  0.94675587    -0.01600
C294        C  0.93601609  0.70172220  0.92049964    -0.10700
C295        C  0.85575069  0.75014874  0.02598862     0.05700
H296        H  0.92566179  0.68778590  0.06472176     0.07600
H297        H  0.99308676  0.64702602  0.02018310     0.11100
H298        H  0.93937456  0.70737428  0.88052946     0.11400
H299        H  0.87163676  0.74785580  0.92524954     0.07700
C300        C  0.84669597  0.80030173  0.01390890    -0.11400
C301        C  0.80847510  0.82648982  0.03705581    -0.10700
C302        C  0.77810964  0.80276407  0.07213713    -0.01600
C303        C  0.78841785  0.75328375  0.08587606    -0.11800
C304        C  0.82729693  0.72737067  0.06342613    -0.10200
H305        H  0.86865096  0.81898334  0.98580055     0.07700
H306        H  0.80083917  0.86434982  0.02533582     0.11400
H307        H  0.76528734  0.73414272  0.11270346     0.11100
H308        H  0.83359859  0.68883219  0.07358067     0.07700
C309        C  0.42067102  0.80803999  0.98416939    -0.11400
C310        C  0.39351303  0.77045922  0.00807863     0.05700
C311        C  0.40494284  0.75789668  0.05781476    -0.10200
C312        C  0.44364680  0.78186995  0.08279808    -0.11800
C313        C  0.47190860  0.81813237  0.05807326    -0.01600
C314        C  0.45975142  0.83137773  0.00881084    -0.10700
C315        C  0.35354291  0.74450766  0.98081024     0.05700
H316        H  0.38419531  0.72931612  0.07715585     0.07600
H317        H  0.45303725  0.77032677  0.12046610     0.11100
H318        H  0.48140882  0.85884972  0.98888527     0.11400
H319        H  0.41275158  0.81815348  0.94577404     0.07700
C320        C  0.31942570  0.77202630  0.95257040    -0.11400
C321        C  0.28080682  0.74807398  0.92780681    -0.10700
C322        C  0.27568919  0.69603376  0.93046105    -0.01600
C323        C  0.31078152  0.66825999  0.95734944    -0.11800
C324        C  0.34926385  0.69235963  0.98257876    -0.10200
H325        H  0.32176451  0.81225744  0.95090275     0.07700
H326        H  0.25403909  0.77049830  0.90776662     0.11400
H327        H  0.30724620  0.62822518  0.96073599     0.11100
H328        H  0.37550582  0.67032050  0.00371845     0.07700
loop_ 
_geom_bond_atom_site_label_1 
_geom_bond_atom_site_label_2 
_geom_bond_distance 
_geom_bond_site_symmetry_2 
_ccdc_geom_bond_type 
Fe1          O17   2.041       .  S
Fe1           O7   2.102       .  S
Fe1          O14   2.104       .  S
Fe1           O6   2.039       .  S
Fe1          O12   1.922       .  S
Fe2           O5   2.041       .  S
Fe2           O9   2.115       .  S
Fe2          O13   2.039       .  S
Fe2          O18   2.112       .  S
Fe2          O12   1.918       .  S
Fe3          O21   2.120       .  S
Fe3           O8   2.039       .  S
Fe3          O15   2.042       .  S
Fe3           O4   2.115       .  S
Fe3          O12   1.923       .  S
O4           C11   1.280       .  A
O5           C19   1.265       .  A
O6           C11   1.267       .  A
O7           C10   1.276       .  A
O8           C20   1.266       .  A
O9           C22   1.280       .  A
C10          O15   1.267       .  A
C10         C313   1.470       .  S
C11         C262   1.479       .  S
O13          C16   1.265       .  A
O14          C16   1.276       .  A
C16         C222   1.471       .  S
O17          C22   1.268       .  A
O18          C20   1.279       .  A
C19          O21   1.280       .  A
C19         C233   1.477   1_554  S
C20         C302   1.474       .  S
C22         C273   1.477   1_565  S
Fe23         O39   2.035       .  S
Fe23         O29   2.114       .  S
Fe23         O36   2.114       .  S
Fe23         O28   2.037       .  S
Fe23         O34   1.918       .  S
Fe24         O27   2.037       .  S
Fe24         O31   2.115       .  S
Fe24         O35   2.041       .  S
Fe24         O40   2.111       .  S
Fe24         O34   1.920       .  S
Fe25         O43   2.115       .  S
Fe25         O30   2.033       .  S
Fe25         O37   2.041       .  S
Fe25         O26   2.115       .  S
Fe25         O34   1.924       .  S
O26          C33   1.279       .  A
O27          C41   1.267       .  A
O28          C33   1.266       .  A
O29          C32   1.279       .  A
O30          C42   1.266       .  A
O31          C44   1.280       .  A
C32          O37   1.267       .  A
C32         C162   1.477   1_655  S
C33         C182   1.478       .  S
O35          C38   1.267       .  A
O36          C38   1.279       .  A
C38         C242   1.482       .  S
O39          C44   1.266       .  A
O40          C42   1.279       .  A
C41          O43   1.279       .  A
C41         C213   1.480       .  S
C42         C142   1.472       .  S
C44         C193   1.480   1_545  S
Fe45         O61   2.035       .  S
Fe45         O51   2.114       .  S
Fe45         O58   2.116       .  S
Fe45         O50   2.039       .  S
Fe45         O56   1.921       .  S
Fe46         O49   2.042       .  S
Fe46         O53   2.110       .  S
Fe46         O57   2.039       .  S
Fe46         O62   2.106       .  S
Fe46         O56   1.920       .  S
Fe47         O65   2.120       .  S
Fe47         O52   2.036       .  S
Fe47         O59   2.039       .  S
Fe47         O48   2.121       .  S
Fe47         O56   1.921       .  S
O48          C55   1.280       .  A
O49          C63   1.267       .  A
O50          C55   1.266       .  A
O51          C54   1.279       .  A
O52          C64   1.267       .  A
O53          C66   1.279       .  A
C54          O59   1.267       .  A
C54         C153   1.478       .  S
C55         C113   1.478       .  S
O57          C60   1.265       .  A
O58          C60   1.278       .  A
C60         C253   1.477       .  S
O61          C66   1.266       .  A
O62          C64   1.278       .  A
C63          O65   1.280       .  A
C63         C282   1.484       .  S
C64         C133   1.472       .  S
C66         C102   1.471       .  S
Fe67         O83   2.039       .  S
Fe67         O73   2.108       .  S
Fe67         O80   2.116       .  S
Fe67         O72   2.040       .  S
Fe67         O78   1.921       .  S
Fe68         O71   2.043       .  S
Fe68         O75   2.121       .  S
Fe68         O79   2.038       .  S
Fe68         O84   2.121       .  S
Fe68         O78   1.920       .  S
Fe69         O87   2.110       .  S
Fe69         O74   2.033       .  S
Fe69         O81   2.034       .  S
Fe69         O70   2.108       .  S
Fe69         O78   1.924       .  S
O70          C77   1.277       .  A
O71          C85   1.266       .  A
O72          C77   1.267       .  A
O73          C76   1.279       .  A
O74          C86   1.265       .  A
O75          C88   1.280       .  A
C76          O81   1.266       .  A
C76         C322   1.475       .  S
C77          C93   1.477   1_556  S
O79          C82   1.266       .  A
O80          C82   1.279       .  A
C82         C173   1.477       .  S
O83          C88   1.266       .  A
O84          C86   1.281       .  A
C85          O87   1.277       .  A
C85         C202   1.474       .  S
C86         C293   1.480   1_455  S
C88         C122   1.483       .  S
C89          C90   1.407       .  A
C89          C94   1.400       .  A
C89          H99   1.083       .  S
C90          C95   1.481       .  S
C90          C91   1.402       .  A
C91          C92   1.395       .  A
C91          H96   1.083       .  S
C92          C93   1.406       .  A
C92          H97   1.083       .  S
C93          C94   1.405       .  A
C94          H98   1.084       .  S
C95         C100   1.406       .  A
C95         C104   1.404       .  A
C100        C101   1.398       .  A
C100        H105   1.083       .  S
C101        C102   1.403       .  A
C101        H106   1.083       .  S
C102        C103   1.405       .  A
C103        C104   1.396       .  A
C103        H107   1.083       .  S
C104        H108   1.083       .  S
C109        C110   1.405       .  A
C109        C114   1.397       .  A
C109        H119   1.083       .  S
C110        C115   1.489       .  S
C110        C111   1.408       .  A
C111        C112   1.402       .  A
C111        H116   1.083       .  S
C112        C113   1.405       .  A
C112        H117   1.083       .  S
C113        C114   1.404       .  A
C114        H118   1.083       .  S
C115        C120   1.404       .  A
C115        C124   1.408       .  A
C120        C121   1.397       .  A
C120        H125   1.083       .  S
C121        C122   1.407       .  A
C121        H126   1.083       .  S
C122        C123   1.405       .  A
C123        C124   1.403       .  A
C123        H127   1.083       .  S
C124        H128   1.082       .  S
C129        C130   1.406       .  A
C129        C134   1.398       .  A
C129        H139   1.084       .  S
C130        C135   1.481       .  S
C130        C131   1.404       .  A
C131        C132   1.395       .  A
C131        H136   1.082       .  S
C132        C133   1.404       .  A
C132        H137   1.084       .  S
C133        C134   1.404       .  A
C134        H138   1.082       .  S
C135        C140   1.407       .  A
C135        C144   1.403       .  A
C140        C141   1.399       .  A
C140        H145   1.083       .  S
C141        C142   1.404       .  A
C141        H146   1.083       .  S
C142        C143   1.405       .  A
C143        C144   1.394       .  A
C143        H147   1.083       .  S
C144        H148   1.083       .  S
C149        C150   1.405       .  A
C149        C154   1.396       .  A
C149        H159   1.083       .  S
C150        C155   1.487       .  S
C150        C151   1.408       .  A
C151        C152   1.400       .  A
C151        H156   1.082       .  S
C152        C153   1.405       .  A
C152        H157   1.084       .  S
C153        C154   1.405       .  A
C154        H158   1.083       .  S
C155        C160   1.406       .  A
C155        C164   1.407       .  A
C160        C161   1.397       .  A
C160        H165   1.082       .  S
C161        C162   1.405       .  A
C161        H166   1.084       .  S
C162        C163   1.404       .  A
C163        C164   1.400       .  A
C163        H167   1.083       .  S
C164        H168   1.083       .  S
C169        C170   1.408       .  A
C169        C174   1.401       .  A
C169        H179   1.082       .  S
C170        C175   1.487   1_455  S
C170        C171   1.404   1_455  A
C171        C172   1.397   1_655  A
C171        H176   1.083       .  S
C172        C173   1.406       .  A
C172        H177   1.082   1_455  S
C173        C174   1.404       .  A
C174        H178   1.084       .  S
C175        C180   1.407       .  A
C175        C184   1.405       .  A
C180        C181   1.400       .  A
C180        H185   1.083   1_655  S
C181        C182   1.404       .  A
C181        H186   1.082       .  S
C182        C183   1.406       .  A
C183        C184   1.397       .  A
C183        H187   1.084       .  S
C184        H188   1.082       .  S
C189        C190   1.408       .  A
C189        C194   1.402       .  A
C189        H199   1.082       .  S
C190        C195   1.485   1_655  S
C190        C191   1.403   1_655  A
C191        C192   1.395   1_455  A
C191        H196   1.083       .  S
C192        C193   1.406       .  A
C192        H197   1.083   1_655  S
C193        C194   1.405       .  A
C194        H198   1.083       .  S
C195        C200   1.407       .  A
C195        C204   1.405       .  A
C200        C201   1.400       .  A
C200        H205   1.083   1_455  S
C201        C202   1.405       .  A
C201        H206   1.084       .  S
C202        C203   1.403       .  A
C203        C204   1.396       .  A
C203        H207   1.083       .  S
C204        H208   1.083       .  S
C209        C210   1.402   1_565  A
C209        C214   1.393   1_565  A
C209        H219   1.083       .  S
C210        C215   1.482   1_545  S
C210        C211   1.407       .  A
C211        C212   1.402       .  A
C211        H216   1.083       .  S
C212        C213   1.406       .  A
C212        H217   1.083       .  S
C213        C214   1.406       .  A
C214        H218   1.083   1_545  S
C215        C220   1.405       .  A
C215        C224   1.406       .  A
C220        C221   1.395       .  A
C220        H225   1.083       .  S
C221        C222   1.403       .  A
C221        H226   1.083       .  S
C222        C223   1.405       .  A
C223        C224   1.399       .  A
C223        H227   1.084       .  S
C224        H228   1.083   1_565  S
C229        C230   1.406   1_545  A
C229        C234   1.399   1_545  A
C229        H239   1.083       .  S
C230        C235   1.489   1_565  S
C230        C231   1.408       .  A
C231        C232   1.401       .  A
C231        H236   1.082       .  S
C232        C233   1.404       .  A
C232        H237   1.084       .  S
C233        C234   1.405       .  A
C234        H238   1.083   1_565  S
C235        C240   1.405       .  A
C235        C244   1.408       .  A
C240        C241   1.397       .  A
C240        H245   1.082       .  S
C241        C242   1.406       .  A
C241        H246   1.083       .  S
C242        C243   1.405       .  A
C243        C244   1.402       .  A
C243        H247   1.083       .  S
C244        H248   1.083       .  S
C249        C250   1.404       .  A
C249        C254   1.396       .  A
C249        H259   1.083       .  S
C250        C255   1.484       .  S
C250        C251   1.407       .  A
C251        C252   1.401       .  A
C251        H256   1.083       .  S
C252        C253   1.405       .  A
C252        H257   1.083       .  S
C253        C254   1.405       .  A
C254        H258   1.083       .  S
C255        C260   1.403       .  A
C255        C264   1.407       .  A
C260        C261   1.395       .  A
C260        H265   1.084       .  S
C261        C262   1.406       .  A
C261        H266   1.083       .  S
C262        C263   1.405       .  A
C263        C264   1.401       .  A
C263        H267   1.084       .  S
C264        H268   1.082       .  S
C269        C270   1.406       .  A
C269        C274   1.401       .  A
C269        H279   1.082       .  S
C270        C275   1.485       .  S
C270        C271   1.404       .  A
C271        C272   1.397       .  A
C271        H276   1.083       .  S
C272        C273   1.405       .  A
C272        H277   1.082       .  S
C273        C274   1.405       .  A
C274        H278   1.084       .  S
C275        C280   1.406       .  A
C275        C284   1.403       .  A
C280        C281   1.403       .  A
C280        H285   1.084       .  S
C281        C282   1.407       .  A
C281        H286   1.082       .  S
C282        C283   1.407       .  A
C283        C284   1.397       .  A
C283        H287   1.084       .  S
C284        H288   1.082       .  S
C289        C290   1.407       .  A
C289        C294   1.399       .  A
C289        H299   1.083       .  S
C290        C295   1.484   1_556  S
C290        C291   1.403   1_556  A
C291        C292   1.397   1_554  A
C291        H296   1.083       .  S
C292        C293   1.409       .  A
C292        H297   1.083   1_556  S
C293        C294   1.404       .  A
C294        H298   1.083       .  S
C295        C300   1.406       .  A
C295        C304   1.405       .  A
C300        C301   1.397       .  A
C300        H305   1.083   1_554  S
C301        C302   1.402       .  A
C301        H306   1.083       .  S
C302        C303   1.406       .  A
C303        C304   1.399       .  A
C303        H307   1.083       .  S
C304        H308   1.083       .  S
C309        C310   1.404   1_556  A
C309        C314   1.394   1_556  A
C309        H319   1.083       .  S
C310        C315   1.478   1_554  S
C310        C311   1.405       .  A
C311        C312   1.398       .  A
C311        H316   1.083       .  S
C312        C313   1.405       .  A
C312        H317   1.083       .  S
C313        C314   1.402       .  A
C314        H318   1.083   1_554  S
C315        C320   1.403       .  A
C315        C324   1.405       .  A
C320        C321   1.393       .  A
C320        H325   1.083       .  S
C321        C322   1.405       .  A
C321        H326   1.083       .  S
C322        C323   1.405       .  A
C323        C324   1.398       .  A
C323        H327   1.083       .  S
C324        H328   1.083   1_556  S
