geometry optimzed in LAMMPS
_audit_creation_date              2020-11-30 
_audit_creation_method            'lammps2cif' 
_symmetry_space_group_name_H-M    'P1' 
_symmetry_Int_Tables_number       1 
_symmetry_cell_setting            triclinic 
loop_ 
_symmetry_equiv_pos_as_xyz 
  x,y,z 
_cell_length_a                    27.42306021 
_cell_length_b                    27.52892244689317 
_cell_length_c                    27.460889646529445 
_cell_angle_alpha                 90.41081075840314 
_cell_angle_beta                  90.27593988906628 
_cell_angle_gamma                 90.20374004162068 
loop_ 
_atom_site_label 
_atom_site_type_symbol 
_atom_site_fract_x 
_atom_site_fract_y 
_atom_site_fract_z 
_atom_site_charge 
Fe1        Fe  0.57663047  0.87087926  0.17846592     1.65800
Fe2        Fe  0.68034399  0.92043158  0.13516202     1.73200
Fe3        Fe  0.62863009  0.82449703  0.07678855     1.54400
O4          O  0.60207366  0.76838275  0.12088319    -0.81300
O5          O  0.66966541  0.94387326  0.06566678    -0.79600
O6          O  0.59046348  0.80003174  0.19492054    -0.83800
O7          O  0.52328473  0.84935073  0.12827985    -0.78600
O8          O  0.69801509  0.80258307  0.09313544    -0.80400
O9          O  0.63284185  0.97516725  0.15931307    -0.83200
C10         C  0.52119273  0.84242391  0.08245621     0.97600
C11         C  0.59206009  0.76398998  0.16596586     1.05000
O12         O  0.62844962  0.87205349  0.12987912    -1.12100
O13         O  0.69601897  0.90055092  0.20471202    -0.74600
O14         O  0.62203607  0.89245738  0.23628686    -0.78100
O15         O  0.55890785  0.84182521  0.05590681    -0.78700
C16         C  0.66770921  0.89945625  0.24088889     0.96500
O17         O  0.55903462  0.94154204  0.16524930    -0.76700
O18         O  0.73477641  0.87262013  0.11177406    -0.81900
C19         C  0.66816452  0.91904402  0.02667769     0.99100
C20         C  0.73621957  0.82791987  0.09960408     1.05100
O21         O  0.65586117  0.87428967  0.02584769    -0.77500
C22         C  0.58693370  0.97834991  0.16586940     1.03400
Fe23       Fe  0.91705043  0.12449788  0.68274231     1.65800
Fe24       Fe  0.82003532  0.07633456  0.62512304     1.73200
Fe25       Fe  0.87388905  0.17670077  0.58052875     1.54400
O26         O  0.89734140  0.22995444  0.63120153    -0.81300
O27         O  0.84119753  0.05744121  0.55675000    -0.79600
O28         O  0.89843876  0.19320587  0.70327465    -0.83800
O29         O  0.97462719  0.15075191  0.63957527    -0.78600
O30         O  0.80333907  0.19721513  0.59246015    -0.80400
O31         O  0.86568774  0.02121079  0.65219256    -0.83200
C32         C  0.98008950  0.15859960  0.59415514     0.97600
C33         C  0.90088314  0.23108047  0.67762687     1.05000
O34         O  0.87030349  0.12586836  0.62939746    -1.12100
O35         O  0.79551661  0.09242942  0.69324749    -0.74600
O36         O  0.86609080  0.09796575  0.73333019    -0.78100
O37         O  0.94436614  0.15944618  0.56476492    -0.78700
C38         C  0.81992517  0.09175615  0.73237837     0.96500
O39         O  0.93821799  0.05546268  0.66566457    -0.76700
O40         O  0.76767250  0.12452734  0.59748256    -0.81900
C41         C  0.84293492  0.08477234  0.51993313     0.99100
C42         C  0.76581351  0.17022806  0.59030774     1.05100
O43         O  0.85093758  0.13035165  0.52352359    -0.77500
C44         C  0.91103268  0.01826065  0.66249143     1.03400
Fe45       Fe  0.31917709  0.42078490  0.37193246     1.65800
Fe46       Fe  0.41861079  0.36988621  0.31934630     1.73200
Fe47       Fe  0.37430177  0.32395573  0.42461004     1.54400
O48         O  0.35393294  0.37369983  0.47854087    -0.81300
O49         O  0.40393753  0.29853256  0.30380499    -0.79600
O50         O  0.33552885  0.44308344  0.44160498    -0.83800
O51         O  0.26615617  0.37282294  0.39787818    -0.78600
O52         O  0.44570044  0.34063679  0.43934701    -0.80400
O53         O  0.36831079  0.38970831  0.26556586    -0.83200
C54         C  0.26495186  0.32854101  0.41101262     0.97600
C55         C  0.34249335  0.41845419  0.47983288     1.05000
O56         O  0.37055743  0.37150162  0.37194567    -1.12100
O57         O  0.43741694  0.44114171  0.33050268    -0.74600
O58         O  0.36548731  0.47529132  0.34618003    -0.78100
O59         O  0.30307747  0.30294467  0.41530081    -0.78700
C60         C  0.41032295  0.47817228  0.33455678     0.96500
O61         O  0.29744146  0.40378153  0.30216381    -0.76700
O62         O  0.47630584  0.34962586  0.36503529    -0.81900
C63         C  0.40314998  0.26267924  0.33251148     0.99100
C64         C  0.48156320  0.34235223  0.41048843     1.05100
O65         O  0.39552914  0.26740018  0.37803274    -0.77500
C66         C  0.32291646  0.39913899  0.26401770     1.03400
Fe67       Fe  0.17384749  0.57369818  0.87201439     1.65800
Fe68       Fe  0.07703910  0.63093831  0.82149028     1.73200
Fe69       Fe  0.12706851  0.67452805  0.92541128     1.54400
O70         O  0.14880413  0.62436098  0.97830836    -0.81300
O71         O  0.09594882  0.70092334  0.80597852    -0.79600
O72         O  0.15675773  0.55253094  0.94145374    -0.83800
O73         O  0.23031971  0.61851188  0.89858972    -0.78600
O74         O  0.05608658  0.66060340  0.94316131    -0.79200
O75         O  0.12476652  0.60762968  0.76678164    -0.83200
C76         C  0.23452639  0.66364014  0.90878442     0.97600
C77         C  0.15544603  0.57859020  0.97968656     1.05000
O78         O  0.12599836  0.62625609  0.87295627    -1.12100
O79         O  0.05385189  0.56144457  0.83233969    -0.74600
O80         O  0.12376039  0.52224378  0.84462897    -0.78100
O81         O  0.19809929  0.69177814  0.91143535    -0.78700
C82         C  0.07864845  0.52273775  0.83306666     0.96500
O83         O  0.19548571  0.58985547  0.80263595    -0.76700
O84         O  0.02248669  0.65473742  0.86927580    -0.81900
C85         C  0.09671642  0.73686381  0.83498013     0.99100
C86         C  0.01919132  0.66111750  0.91518595     1.05100
O87         O  0.10488369  0.73203344  0.88043192    -0.77500
C88         C  0.16959827  0.59576559  0.76477665     1.03400
C89         C  0.23454636  0.44649605  0.16519008     0.19100
C90         C  0.20053151  0.48451303  0.16698268    -0.19000
C91         C  0.18197903  0.50488800  0.12419920    -0.11300
C92         C  0.19685572  0.48738521  0.07838601     0.21300
C93         C  0.22898814  0.44770610  0.07663496    -0.20600
C94         C  0.24783474  0.42755081  0.11946764    -0.11500
C95         C  0.18043145  0.50959461  0.03171416    -0.15600
C96         C  0.16394343  0.55560330  0.02766289    -0.29500
C97         C  0.25553880  0.42849182  0.21181724    -0.03700
C98         C  0.29973079  0.40735817  0.21587338    -0.40300
H99         H  0.18903084  0.49930820  0.20172448     0.12500
H100        H  0.15603765  0.53420684  0.12735544     0.12100
H101        H  0.24043459  0.43287627  0.04189229     0.11600
H102        H  0.27269088  0.39726189  0.11654631     0.11800
H103        H  0.18593581  0.48835516  0.99868761     0.14500
H104        H  0.16072825  0.57860810  0.05969648     0.13300
H105        H  0.23575719  0.43744926  0.24487134     0.11000
H106        H  0.32161370  0.40077311  0.18370536     0.13000
C107        C  0.25666233  0.54692536  0.66529964     0.19100
C108        C  0.29470685  0.51284924  0.66704235    -0.19000
C109        C  0.31434000  0.49328965  0.62425514    -0.11300
C110        C  0.29634320  0.50757314  0.57853782     0.21300
C111        C  0.25976743  0.54314047  0.57674480    -0.20600
C112        C  0.24000154  0.56256263  0.61951260    -0.11500
C113        C  0.31376069  0.48603752  0.53190084    -0.15600
C114        C  0.33471996  0.44189418  0.52788588    -0.29500
C115        C  0.23547749  0.56450007  0.71208766    -0.03700
C116        C  0.19164345  0.58634611  0.71646229    -0.40300
H117        H  0.30882136  0.50064460  0.70176109     0.12500
H118        H  0.34353212  0.46716973  0.62729720     0.12100
H119        H  0.24568008  0.55532564  0.54200368     0.11600
H120        H  0.21187331  0.58975453  0.61627764     0.11800
H121        H  0.30474351  0.50560130  0.49883286     0.14500
H122        H  0.34178873  0.42032800  0.56003389     0.13300
H123        H  0.25558803  0.55572098  0.74505409     0.11000
H124        H  0.16939938  0.59350078  0.68460578     0.13000
C125        C  0.58451820  0.29785193  0.49567470     0.19100
C126        C  0.58285421  0.26886119  0.53757747    -0.19000
C127        C  0.62526046  0.24828733  0.55677831    -0.11300
C128        C  0.67052799  0.25660965  0.53461841     0.21300
C129        C  0.67257319  0.28693744  0.49373481    -0.20600
C130        C  0.63005293  0.30720165  0.47421497    -0.11500
C131        C  0.71639487  0.23516618  0.55362245    -0.15600
C132        C  0.71851477  0.19231263  0.57710151    -0.29500
C133        C  0.53772740  0.31677645  0.47584266    -0.03700
C134        C  0.53109639  0.33293118  0.42997186    -0.40300
H135        H  0.54839825  0.26151582  0.55525248     0.12500
H136        H  0.62251157  0.22635903  0.58920152     0.12100
H137        H  0.70717749  0.29446405  0.47642590     0.11600
H138        H  0.63325727  0.33029167  0.44271418     0.11800
H139        H  0.75020440  0.25374639  0.54470366     0.14500
H140        H  0.68560151  0.17114400  0.58283758     0.13300
H141        H  0.50608143  0.31348111  0.49928672     0.11000
H142        H  0.56134953  0.33471959  0.40477871     0.13000
C143        C  0.08191259  0.20534379  0.50938725     0.19100
C144        C  0.07974958  0.23646336  0.46909488    -0.19000
C145        C  0.12221171  0.25616146  0.44920833    -0.11300
C146        C  0.16807627  0.24493243  0.46913478     0.21300
C147        C  0.17036689  0.21267405  0.50855293    -0.20600
C148        C  0.12780869  0.19315793  0.52864812    -0.11500
C149        C  0.21432109  0.26547787  0.44979583    -0.15600
C150        C  0.21729731  0.30674257  0.42365334    -0.29500
C151        C  0.03532421  0.18647516  0.52945419    -0.03700
C152        C  0.02939244  0.16954575  0.57512538    -0.40300
H153        H  0.04490213  0.24598522  0.45312019     0.12500
H154        H  0.11879618  0.27960561  0.41796761     0.12100
H155        H  0.20527564  0.20287012  0.52421296     0.11600
H156        H  0.13116049  0.16830151  0.55878000     0.11800
H157        H  0.24787153  0.24745015  0.46049530     0.14500
H158        H  0.18477443  0.32737482  0.41516229     0.13300
H159        H  0.00334832  0.19014987  0.50624715     0.11000
H160        H  0.06003198  0.16766764  0.60013976     0.13000
C161        C  0.99102072  0.43630924  0.76450606     0.19100
C162        C  0.99687572  0.38846142  0.78083163    -0.19000
C163        C  0.97574237  0.34974162  0.75495911    -0.11300
C164        C  0.94836911  0.35808805  0.71225157     0.21300
C165        C  0.94272904  0.40582438  0.69597334    -0.20600
C166        C  0.96322391  0.44458775  0.72223920    -0.11500
C167        C  0.92779517  0.31722745  0.68299476    -0.15600
C168        C  0.91132031  0.27665789  0.70423144    -0.29500
C169        C  0.01305801  0.47868481  0.79017804    -0.03700
C170        C  0.05459077  0.47714866  0.81680861    -0.40300
H171        H  0.01744007  0.38083005  0.81360279     0.12500
H172        H  0.98186855  0.31319204  0.76784441     0.12100
H173        H  0.92221963  0.41312786  0.66303410     0.11600
H174        H  0.95812979  0.48118814  0.70894207     0.11800
H175        H  0.92768405  0.32003741  0.64354626     0.14500
H176        H  0.91007213  0.27501725  0.74373382     0.13300
H177        H  0.99658830  0.51375810  0.78284649     0.11000
H178        H  0.07382289  0.44314850  0.82175539     0.13000
C179        C  0.99857681  0.92062747  0.71315163     0.19100
C180        C  0.03645748  0.92382620  0.74777400    -0.19000
C181        C  0.05738149  0.88194132  0.76744493    -0.11300
C182        C  0.04107914  0.83573895  0.75246354     0.21300
C183        C  0.00411645  0.83254452  0.71688674    -0.20600
C184        C  0.98292545  0.87439864  0.69751969    -0.11500
C185        C  0.06176326  0.78988872  0.77203926    -0.15600
C186        C  0.08472748  0.78552831  0.81547543    -0.29500
C187        C  0.97702746  0.96643311  0.69434004    -0.03700
C188        C  0.93240147  0.97014591  0.67356028    -0.40300
H189        H  0.04965983  0.95899481  0.76005714     0.12500
H190        H  0.08658318  0.88598252  0.79378699     0.12100
H191        H  0.99123816  0.79738267  0.70424316     0.11600
H192        H  0.95483885  0.87024184  0.67002223     0.11800
H193        H  0.05421485  0.75713419  0.75093353     0.14500
H194        H  0.09001502  0.81692970  0.83902549     0.13300
H195        H  0.99782783  0.99948277  0.70123531     0.11000
H196        H  0.90950409  0.93828464  0.66853164     0.13000
C197        C  0.79371481  0.99524784  0.42302173     0.19100
C198        C  0.76022233  0.95668224  0.42697264    -0.19000
C199        C  0.74022636  0.93468175  0.38539904    -0.11300
C200        C  0.75389363  0.95064865  0.33900984     0.21300
C201        C  0.78835564  0.98824414  0.33502490    -0.20600
C202        C  0.80795552  0.01057630  0.37654539    -0.11500
C203        C  0.73363863  0.92919576  0.29370873    -0.15600
C204        C  0.68850324  0.90993059  0.28957747    -0.29500
C205        C  0.81296300  0.01780799  0.46837940    -0.03700
C206        C  0.83229693  0.06292659  0.47169744    -0.40300
H207        H  0.74908510  0.94382478  0.46243569     0.12500
H208        H  0.71466974  0.90499687  0.38968348     0.12100
H209        H  0.79975640  0.00081069  0.29953851     0.11600
H210        H  0.83455626  0.03924362  0.37195808     0.11800
H211        H  0.75526842  0.93423394  0.26104959     0.14500
H212        H  0.66489158  0.90730909  0.32106421     0.13300
H213        H  0.80745999  0.99723022  0.50155080     0.11000
H214        H  0.83578108  0.08563109  0.43978680     0.13000
C215        C  0.73555692  0.00574348  0.93961630     0.19100
C216        C  0.71983104  0.99715082  0.89154592    -0.19000
C217        C  0.74450107  0.01824526  0.85250501    -0.11300
C218        C  0.78530288  0.04857466  0.86064913     0.21300
C219        C  0.80089512  0.05715837  0.90859624    -0.20600
C220        C  0.77594583  0.03644764  0.94766750    -0.11500
C221        C  0.81369582  0.06911547  0.81959700    -0.15600
C222        C  0.79253793  0.08038734  0.77698436    -0.29500
C223        C  0.71124905  0.98363105  0.98242917    -0.03700
C224        C  0.68411544  0.94252268  0.98103693    -0.40300
H225        H  0.68847754  0.97439015  0.88383000     0.12500
H226        H  0.73221768  0.00968917  0.81592426     0.12100
H227        H  0.83239864  0.07999352  0.91582483     0.11600
H228        H  0.78881428  0.04377348  0.98436083     0.11800
H229        H  0.85280186  0.07386922  0.82420123     0.14500
H230        H  0.75317880  0.07750071  0.77328154     0.13300
H231        H  0.71942290  0.00015023  0.01762157     0.11000
H232        H  0.67804632  0.92319045  0.94698683     0.13000
C233        C  0.49592324  0.57788967  0.28494987     0.19100
C234        C  0.53481289  0.57612745  0.25182284    -0.19000
C235        C  0.55464340  0.61877011  0.23268620    -0.11300
C236        C  0.53604303  0.66426379  0.24658880     0.21300
C237        C  0.49801891  0.66609953  0.28063635    -0.20600
C238        C  0.47805657  0.62349702  0.29960768    -0.11500
C239        C  0.55561228  0.71073497  0.22754376    -0.15600
C240        C  0.57952771  0.71539777  0.18497324    -0.29500
C241        C  0.47548262  0.53133045  0.30312459    -0.03700
C242        C  0.43103113  0.52649914  0.32346533    -0.40300
H243        H  0.54970781  0.54151500  0.24034830     0.12500
H244        H  0.58481686  0.61586893  0.20763368     0.12100
H245        H  0.48342718  0.70074033  0.29243378     0.11600
H246        H  0.44916419  0.62673093  0.32604488     0.11800
H247        H  0.54680756  0.74333944  0.24822161     0.14500
H248        H  0.58598283  0.68403148  0.16179304     0.13300
H249        H  0.49694328  0.49886575  0.29640725     0.11000
H250        H  0.40759542  0.55773841  0.32848168     0.13000
C251        C  0.49828609  0.07605889  0.21332812     0.19100
C252        C  0.46251020  0.07389500  0.24969139    -0.19000
C253        C  0.44103014  0.11627301  0.26779307    -0.11300
C254        C  0.45471495  0.16185620  0.24948029     0.21300
C255        C  0.48935904  0.16384428  0.21196914    -0.20600
C256        C  0.51113861  0.12147159  0.19415984    -0.11500
C257        C  0.43423207  0.20819962  0.26831271    -0.15600
C258        C  0.41423552  0.21382808  0.31281343    -0.29500
C259        C  0.52033569  0.03000890  0.19590066    -0.03700
C260        C  0.56538311  0.02641364  0.17664532    -0.40300
H261        H  0.45148109  0.03922418  0.26456413     0.12500
H262        H  0.41351789  0.11297569  0.29565313     0.12100
H263        H  0.50011874  0.19845159  0.19677094     0.11600
H264        H  0.53748599  0.12440050  0.16512204     0.11800
H265        H  0.43978796  0.24015873  0.24595789     0.14500
H266        H  0.41085961  0.18322223  0.33722462     0.13300
H267        H  0.49969838  0.99696460  0.20265533     0.11000
H268        H  0.58816280  0.05843450  0.17260864     0.13000
C269        C  0.91938122  0.70408297  0.00458804     0.19100
C270        C  0.92143765  0.73212049  0.04758696    -0.19000
C271        C  0.87895902  0.75130673  0.06813484    -0.11300
C272        C  0.83339638  0.74238836  0.04617160     0.21300
C273        C  0.83114122  0.71287022  0.00432058    -0.20600
C274        C  0.87354357  0.69401309  0.98359330    -0.11500
C275        C  0.78726511  0.76286712  0.06536183    -0.15600
C276        C  0.78414977  0.80523395  0.09013041    -0.29500
C277        C  0.96582117  0.68647544  0.98297969    -0.03700
C278        C  0.97078667  0.67161796  0.93628190    -0.40300
H279        H  0.95618008  0.73986060  0.06497867     0.12500
H280        H  0.88190329  0.77274854  0.10119796     0.12100
H281        H  0.79636887  0.70495343  0.98706527     0.11600
H282        H  0.86994650  0.67140121  0.95144058     0.11800
H283        H  0.75380996  0.74451095  0.05425573     0.14500
H284        H  0.81681097  0.82597167  0.09886305     0.13300
H285        H  0.99820249  0.68905686  0.00586393     0.11000
H286        H  0.93973194  0.67091218  0.91171109     0.13000
C287        C  0.42191696  0.79143937  0.99608777     0.19100
C288        C  0.42362090  0.75566248  0.95935149    -0.19000
C289        C  0.38074332  0.73453970  0.94099839    -0.11300
C290        C  0.33512417  0.74913036  0.95891160     0.21300
C291        C  0.33337131  0.78591666  0.99454940    -0.20600
C292        C  0.37615772  0.80685671  0.01302044    -0.11500
C293        C  0.28836256  0.72807593  0.94104752    -0.15600
C294        C  0.28345233  0.68386537  0.91996201    -0.29500
C295        C  0.46860819  0.81108051  0.01599674    -0.03700
C296        C  0.47302460  0.83213044  0.06030632    -0.40300
H297        H  0.45835103  0.74351299  0.94521960     0.12500
H298        H  0.38354664  0.70732120  0.91256432     0.12100
H299        H  0.29864570  0.79831188  0.00850107     0.11600
H300        H  0.37297270  0.83531774  0.04012814     0.11800
H301        H  0.25572413  0.74901961  0.94871680     0.14500
H302        H  0.31492673  0.66075812  0.91442900     0.13300
H303        H  0.50141863  0.80394375  0.99512066     0.11000
H304        H  0.44138478  0.83678530  0.08336282     0.13000
loop_ 
_geom_bond_atom_site_label_1 
_geom_bond_atom_site_label_2 
_geom_bond_distance 
_geom_bond_site_symmetry_2 
_ccdc_geom_bond_type 
Fe1          O17   2.041       .  S
Fe1           O7   2.086       .  S
Fe1          O14   2.094       .  S
Fe1           O6   2.042       .  S
Fe1          O12   1.954       .  S
Fe2           O5   2.039       .  S
Fe2           O9   2.101       .  S
Fe2          O13   2.035       .  S
Fe2          O18   2.094       .  S
Fe2          O12   1.950       .  S
Fe3          O21   2.103       .  S
Fe3           O8   2.047       .  S
Fe3          O15   2.052       .  S
Fe3           O4   2.100       .  S
Fe3          O12   1.952       .  S
O4           C11   1.276       .  A
O5           C19   1.267       .  A
O6           C11   1.268       .  A
O7           C10   1.272       .  A
O8           C20   1.268       .  A
O9           C22   1.276       .  A
C10          O15   1.268       .  A
C10         C296   1.477       .  S
C11         C240   1.479       .  S
O13          C16   1.264       .  A
O14          C16   1.272       .  A
C16         C204   1.477       .  S
O17          C22   1.267       .  A
O18          C20   1.274       .  A
C19          O21   1.276       .  A
C19         C224   1.481   1_554  S
C20         C276   1.481       .  S
C22         C260   1.480   1_565  S
Fe23         O39   2.041       .  S
Fe23         O29   2.108       .  S
Fe23         O36   2.108       .  S
Fe23         O28   2.037       .  S
Fe23         O34   1.943       .  S
Fe24         O27   2.033       .  S
Fe24         O31   2.108       .  S
Fe24         O35   2.037       .  S
Fe24         O40   2.101       .  S
Fe24         O34   1.938       .  S
Fe25         O43   2.105       .  S
Fe25         O30   2.045       .  S
Fe25         O37   2.040       .  S
Fe25         O26   2.111       .  S
Fe25         O34   1.948       .  S
O26          C33   1.278       .  A
O27          C41   1.266       .  A
O28          C33   1.264       .  A
O29          C32   1.277       .  A
O30          C42   1.268       .  A
O31          C44   1.277       .  A
C32          O37   1.267       .  A
C32         C152   1.483   1_655  S
C33         C168   1.474       .  S
O35          C38   1.264       .  A
O36          C38   1.277       .  A
C38         C222   1.475       .  S
O39          C44   1.267       .  A
O40          C42   1.276       .  A
C41          O43   1.276       .  A
C41         C206   1.478       .  S
C42         C132   1.479       .  S
C44         C188   1.483   1_545  S
Fe45         O61   2.054       .  S
Fe45         O51   2.092       .  S
Fe45         O58   2.092       .  S
Fe45         O50   2.052       .  S
Fe45         O56   1.959       .  S
Fe46         O49   2.045       .  S
Fe46         O53   2.093       .  S
Fe46         O57   2.047       .  S
Fe46         O62   2.094       .  S
Fe46         O56   1.960       .  S
Fe47         O65   2.094       .  S
Fe47         O52   2.047       .  S
Fe47         O59   2.049       .  S
Fe47         O48   2.089       .  S
Fe47         O56   1.960       .  S
O48          C55   1.273       .  A
O49          C63   1.268       .  A
O50          C55   1.268       .  A
O51          C54   1.274       .  A
O52          C64   1.267       .  A
O53          C66   1.273       .  A
C54          O59   1.268       .  A
C54         C150   1.480       .  S
C55         C114   1.481       .  S
O57          C60   1.268       .  A
O58          C60   1.274       .  A
C60         C242   1.479       .  S
O61          C66   1.268       .  A
O62          C64   1.273       .  A
C63          O65   1.274       .  A
C63         C258   1.479       .  S
C64         C134   1.482       .  S
C66          C98   1.483       .  S
Fe67         O83   2.050       .  S
Fe67         O73   2.101       .  S
Fe67         O80   2.102       .  S
Fe67         O72   2.054       .  S
Fe67         O78   1.957       .  S
Fe68         O71   2.042       .  S
Fe68         O75   2.096       .  S
Fe68         O79   2.038       .  S
Fe68         O84   2.098       .  S
Fe68         O78   1.950       .  S
Fe69         O87   2.105       .  S
Fe69         O74   2.045       .  S
Fe69         O81   2.042       .  S
Fe69         O70   2.097       .  S
Fe69         O78   1.953       .  S
O70          C77   1.275       .  A
O71          C85   1.266       .  A
O72          C77   1.268       .  A
O73          C76   1.276       .  A
O74          C86   1.268       .  A
O75          C88   1.275       .  A
C76          O81   1.268       .  A
C76         C294   1.481       .  S
C77          C96   1.483   1_556  S
O79          C82   1.266       .  A
O80          C82   1.276       .  A
C82         C170   1.481       .  S
O83          C88   1.268       .  A
O84          C86   1.275       .  A
C85          O87   1.275       .  A
C85         C186   1.484       .  S
C86         C278   1.479   1_455  S
C88         C116   1.482       .  S
C89          C97   1.490       .  S
C89          C90   1.405       .  A
C89          C94   1.406       .  A
C90          C91   1.400       .  A
C90          H99   1.083       .  S
C91          C92   1.407       .  A
C91         H100   1.081       .  S
C92          C95   1.492       .  S
C92          C93   1.407       .  A
C93          C94   1.401       .  A
C93         H101   1.083       .  S
C94         H102   1.082       .  S
C95         H103   1.087   1_554  S
C95          C96   1.352       .  D
C96         H104   1.084       .  S
C97         H105   1.087       .  S
C97          C98   1.351       .  D
C98         H106   1.085       .  S
C107        C115   1.491       .  S
C107        C108   1.406       .  A
C107        C112   1.407       .  A
C108        C109   1.400       .  A
C108        H117   1.083       .  S
C109        C110   1.406       .  A
C109        H118   1.081       .  S
C110        C113   1.489       .  S
C110        C111   1.405       .  A
C111        C112   1.399       .  A
C111        H119   1.083       .  S
C112        H120   1.081       .  S
C113        H121   1.087       .  S
C113        C114   1.350       .  D
C114        H122   1.084       .  S
C115        H123   1.087       .  S
C115        C116   1.352       .  D
C116        H124   1.084       .  S
C125        C133   1.489       .  S
C125        C126   1.406       .  A
C125        C130   1.407       .  A
C126        C127   1.398       .  A
C126        H135   1.083       .  S
C127        C128   1.404       .  A
C127        H136   1.082       .  S
C128        C131   1.485       .  S
C128        C129   1.405       .  A
C129        C130   1.400       .  A
C129        H137   1.083       .  S
C130        H138   1.081       .  S
C131        H139   1.087       .  S
C131        C132   1.350       .  D
C132        H140   1.085       .  S
C133        H141   1.087       .  S
C133        C134   1.351       .  D
C134        H142   1.084       .  S
C143        C151   1.487       .  S
C143        C144   1.405       .  A
C143        C148   1.406       .  A
C144        C145   1.398       .  A
C144        H153   1.083       .  S
C145        C146   1.406       .  A
C145        H154   1.081       .  S
C146        C149   1.489       .  S
C146        C147   1.406       .  A
C147        C148   1.400       .  A
C147        H155   1.083       .  S
C148        H156   1.081       .  S
C149        H157   1.087       .  S
C149        C150   1.351       .  D
C150        H158   1.084       .  S
C151        H159   1.087       .  S
C151        C152   1.351       .  D
C152        H160   1.084       .  S
C161        C169   1.484   1_655  S
C161        C162   1.404       .  A
C161        C166   1.406       .  A
C162        C163   1.399       .  A
C162        H171   1.082   1_655  S
C163        C164   1.410       .  A
C163        H172   1.082       .  S
C164        C167   1.486       .  S
C164        C165   1.400       .  A
C165        C166   1.398       .  A
C165        H173   1.083       .  S
C166        H174   1.083       .  S
C167        H175   1.087       .  S
C167        C168   1.342       .  D
C168        H176   1.087       .  S
C169        H177   1.087   1_455  S
C169        C170   1.352       .  D
C170        H178   1.085       .  S
C179        C187   1.489       .  S
C179        C180   1.407   1_655  A
C179        C184   1.405       .  A
C180        C181   1.400       .  A
C180        H189   1.083       .  S
C181        C182   1.405       .  A
C181        H190   1.081       .  S
C182        C185   1.489       .  S
C182        C183   1.407       .  A
C183        C184   1.400   1_455  A
C183        H191   1.083   1_455  S
C184        H192   1.081       .  S
C185        H193   1.087       .  S
C185        C186   1.352       .  D
C186        H194   1.085       .  S
C187        H195   1.087       .  S
C187        C188   1.352       .  D
C188        H196   1.085       .  S
C197        C205   1.482   1_565  S
C197        C198   1.406       .  A
C197        C202   1.404   1_565  A
C198        C199   1.397       .  A
C198        H207   1.084       .  S
C199        C200   1.403       .  A
C199        H208   1.082       .  S
C200        C203   1.478       .  S
C200        C201   1.404       .  A
C201        C202   1.396   1_565  A
C201        H209   1.084   1_565  S
C202        H210   1.081       .  S
C203        H211   1.087       .  S
C203        C204   1.349       .  D
C204        H212   1.085       .  S
C205        H213   1.087   1_545  S
C205        C206   1.351       .  D
C206        H214   1.084       .  S
C215        C223   1.487   1_545  S
C215        C216   1.405   1_545  A
C215        C220   1.407       .  A
C216        C217   1.399   1_565  A
C216        H225   1.081       .  S
C217        C218   1.410       .  A
C217        H226   1.082       .  S
C218        C221   1.487       .  S
C218        C219   1.401       .  A
C219        C220   1.399       .  A
C219        H227   1.083       .  S
C220        H228   1.083       .  S
C221        H229   1.087       .  S
C221        C222   1.342       .  D
C222        H230   1.086       .  S
C223        H231   1.087   1_566  S
C223        C224   1.352       .  D
C224        H232   1.084       .  S
C233        C241   1.488       .  S
C233        C234   1.406       .  A
C233        C238   1.406       .  A
C234        C235   1.399       .  A
C234        H243   1.083       .  S
C235        C236   1.405       .  A
C235        H244   1.081       .  S
C236        C239   1.485       .  S
C236        C237   1.405       .  A
C237        C238   1.398       .  A
C237        H245   1.084       .  S
C238        H246   1.081       .  S
C239        H247   1.087       .  S
C239        C240   1.350       .  D
C240        H248   1.085       .  S
C241        H249   1.087       .  S
C241        C242   1.350       .  D
C242        H250   1.084       .  S
C251        C259   1.484       .  S
C251        C252   1.405       .  A
C251        C256   1.404       .  A
C252        C253   1.398       .  A
C252        H261   1.084       .  S
C253        C254   1.406       .  A
C253        H262   1.081       .  S
C254        C257   1.486       .  S
C254        C255   1.406       .  A
C255        C256   1.399       .  A
C255        H263   1.083       .  S
C256        H264   1.082       .  S
C257        H265   1.087       .  S
C257        C258   1.350       .  D
C258        H266   1.084       .  S
C259        H267   1.087   1_545  S
C259        C260   1.350       .  D
C260        H268   1.085       .  S
C269        C277   1.489   1_554  S
C269        C270   1.407       .  A
C269        C274   1.406   1_554  A
C270        C271   1.400       .  A
C270        H279   1.083       .  S
C271        C272   1.405       .  A
C271        H280   1.082       .  S
C272        C275   1.484       .  S
C272        C273   1.404       .  A
C273        C274   1.397   1_554  A
C273        H281   1.084   1_554  S
C274        H282   1.081       .  S
C275        H283   1.087       .  S
C275        C276   1.349       .  D
C276        H284   1.085       .  S
C277        H285   1.087   1_556  S
C277        C278   1.351       .  D
C278        H286   1.084       .  S
C287        C295   1.488   1_556  S
C287        C288   1.406       .  A
C287        C292   1.406   1_556  A
C288        C289   1.400       .  A
C288        H297   1.083       .  S
C289        C290   1.405       .  A
C289        H298   1.081       .  S
C290        C293   1.485       .  S
C290        C291   1.404       .  A
C291        C292   1.397   1_556  A
C291        H299   1.084   1_556  S
C292        H300   1.081       .  S
C293        H301   1.087       .  S
C293        C294   1.350       .  D
C294        H302   1.085       .  S
C295        H303   1.087   1_554  S
C295        C296   1.349       .  D
C296        H304   1.084       .  S
