geometry optimzed in LAMMPS
_audit_creation_date              2020-11-30 
_audit_creation_method            'lammps2cif' 
_symmetry_space_group_name_H-M    'P1' 
_symmetry_Int_Tables_number       1 
_symmetry_cell_setting            triclinic 
loop_ 
_symmetry_equiv_pos_as_xyz 
  x,y,z 
_cell_length_a                    26.25084999 
_cell_length_b                    26.252235710157912 
_cell_length_c                    26.28482125784212 
_cell_angle_alpha                 90.07737663079878 
_cell_angle_beta                  90.32993718679589 
_cell_angle_gamma                 90.0850902875196 
loop_ 
_atom_site_label 
_atom_site_type_symbol 
_atom_site_fract_x 
_atom_site_fract_y 
_atom_site_fract_z 
_atom_site_charge 
O1          O  0.72869871  0.87694658  0.10021229    -0.82000
C2          C  0.52163782  0.84651199  0.08117213     0.97400
O3          O  0.56054299  0.85377493  0.05421181    -0.71100
O4          O  0.65423363  0.87745509  0.02508546    -0.74700
Al5        Al  0.62524265  0.83070698  0.07481071     1.49000
C6          C  0.66206255  0.92515629  0.02594069     0.92600
O7          O  0.63495577  0.97218371  0.16192907    -0.80900
O8          O  0.62519504  0.89274970  0.22987055    -0.74400
Al9        Al  0.67672317  0.91977476  0.13034224     1.90100
O10         O  0.55892423  0.93720362  0.16178668    -0.73500
O11         O  0.59897016  0.80410136  0.19127573    -0.73400
O12         O  0.52572275  0.84774897  0.12933516    -0.79000
O13         O  0.59599458  0.77422893  0.11333273    -0.77200
O14         O  0.62757809  0.87388990  0.12641449    -1.13400
O15         O  0.68934101  0.80374677  0.09098637    -0.72600
C16         C  0.72989915  0.82941912  0.09162315     0.98200
C17         C  0.58701423  0.97569986  0.16726885     0.94600
Al18       Al  0.58079113  0.87073365  0.17435071     1.55600
O19         O  0.65906833  0.94892801  0.06744427    -0.77200
C20         C  0.59265413  0.76750115  0.16103696     0.98700
C21         C  0.67337841  0.89579074  0.23281615     0.93600
O22         O  0.69968757  0.89511255  0.19312687    -0.82500
O23         O  0.90390994  0.22313766  0.61565362    -0.82000
C24         C  0.92132944  0.02056936  0.66205925     0.97400
O25         O  0.94776956  0.06027159  0.65779499    -0.71100
O26         O  0.97790356  0.15217751  0.62980766    -0.74700
Al27       Al  0.92350543  0.12522601  0.67296499     1.49000
C28         C  0.98188361  0.15497401  0.58177392     0.92600
O29         O  0.85181570  0.11993438  0.52250178    -0.80900
O30         O  0.77581404  0.11516637  0.59550076    -0.74400
Al31       Al  0.87770004  0.16660295  0.57437769     1.90100
O32         O  0.84922612  0.04741152  0.56314736    -0.73500
O33         O  0.80512445  0.09569048  0.68993820    -0.73400
O34         O  0.87322216  0.02252129  0.65675188    -0.79000
O35         O  0.88003373  0.09945431  0.72696036    -0.77200
O36         O  0.87676395  0.12192964  0.62449970    -1.13400
O37         O  0.90281652  0.19032232  0.69229513    -0.72600
C38         C  0.90748823  0.22828748  0.66365644     0.98200
C39         C  0.84662122  0.07187652  0.52210186     0.94600
Al40       Al  0.82948133  0.07394220  0.62618920     1.55600
O41         O  0.94324090  0.14707025  0.55430583    -0.77200
C42         C  0.83200483  0.09464228  0.72973362     0.98700
C43         C  0.77310147  0.16272549  0.58740684     0.93600
O44         O  0.81245781  0.19006295  0.58971830    -0.82500
O45         O  0.37281660  0.47794745  0.34846076    -0.82000
C46         C  0.41370822  0.27259665  0.33590196     0.97400
O47         O  0.40798257  0.31144244  0.30844731    -0.71100
O48         O  0.38223116  0.40298262  0.27687958    -0.74700
Al49       Al  0.42554138  0.37673869  0.33137210     1.49000
C50         C  0.33423033  0.40776565  0.27354085     0.92600
O51         O  0.27625773  0.38074430  0.40482066    -0.80900
O52         O  0.34867979  0.37309250  0.47848969    -0.74400
Al53       Al  0.32983135  0.42416724  0.37724034     1.90100
O54         O  0.31294583  0.30568254  0.40597281    -0.73500
O55         O  0.44189596  0.34935227  0.44977160    -0.73400
O56         O  0.40672520  0.27590434  0.38352731    -0.79000
O57         O  0.47913330  0.35060123  0.37545543    -0.77200
O58         O  0.37759130  0.37673546  0.37808429    -1.13400
O59         O  0.44759918  0.44162312  0.35057927    -0.72600
C60         C  0.42076453  0.48043996  0.34280661     0.98200
C61         C  0.27345421  0.33262857  0.40930094     0.94600
Al62       Al  0.37753485  0.32958932  0.42579153     1.55600
O63         O  0.30714132  0.40415865  0.31273236    -0.77200
C64         C  0.48165566  0.34621491  0.42348278     0.98700
C65         C  0.34248266  0.42096676  0.48137329     0.93600
O66         O  0.34823682  0.44809799  0.44225548    -0.82500
O67         O  0.02237479  0.64623047  0.87923218    -0.82000
C68         C  0.22876585  0.66819126  0.91064718     0.97400
O69         O  0.18866347  0.69419750  0.90809513    -0.71100
O70         O  0.09485938  0.72272309  0.88614688    -0.74700
Al71       Al  0.12492764  0.66955596  0.92826678     1.49000
C72         C  0.08737202  0.72550076  0.83851542     0.92600
O73         O  0.11932673  0.59525177  0.77908955    -0.80900
O74         O  0.13082297  0.52110108  0.85011871    -0.74400
Al75       Al  0.07581454  0.62095956  0.83415281     1.90100
O76         O  0.19478489  0.59617393  0.81516306    -0.73500
O77         O  0.15504937  0.55159784  0.94330485    -0.73400
O78         O  0.22654061  0.61992003  0.90714595    -0.79000
O79         O  0.15422627  0.62624195  0.98086706    -0.77200
O80         O  0.12459373  0.62226024  0.88044354    -1.13400
O81         O  0.06164975  0.64930867  0.95287846    -0.72600
C82         C  0.02114948  0.65091528  0.92738272     0.98200
C83         C  0.16761183  0.59157523  0.77595176     0.94600
Al84       Al  0.17307495  0.57572771  0.87924865     1.55600
O85         O  0.09148036  0.68635105  0.81120084    -0.77200
C86         C  0.15789296  0.57802874  0.98312442     0.98700
C87         C  0.08285848  0.51722840  0.84497582     0.93600
O88         O  0.05541164  0.55550744  0.85321151    -0.82500
C89         C  0.17178794  0.55222373  0.03101613    -0.12100
C90         C  0.16504714  0.49908598  0.03697013     0.03300
C91         C  0.19070394  0.47357235  0.07585697    -0.12700
C92         C  0.22131634  0.50017388  0.11066931     0.18200
C93         C  0.22428926  0.55371127  0.10765062    -0.09700
C94         C  0.19982480  0.57925220  0.06784257    -0.02700
H95         H  0.18739097  0.43248107  0.07847126     0.04700
C96         C  0.25080066  0.47127634  0.14891523     0.20200
H97         H  0.20497381  0.62008302  0.06431897     0.09900
C98         C  0.30417831  0.47449514  0.14897699    -0.16000
C99         C  0.33324955  0.45105747  0.18707912     0.02900
C100        C  0.30857385  0.42276846  0.22554494    -0.11400
C101        C  0.25536455  0.41636749  0.22263785    -0.01400
C102        C  0.22647768  0.44066456  0.18527607    -0.06600
H103        H  0.32317892  0.49702296  0.12025947     0.05900
H104        H  0.23555285  0.39466371  0.25142966     0.09300
Br105      Br  0.26161597  0.59360200  0.15653667    -0.06300
Br106      Br  0.12134229  0.45881853  0.99374563    -0.03200
Br107      Br  0.40537844  0.46354842  0.18614061    -0.00400
Br108      Br  0.15365762  0.43447710  0.18880981    -0.04700
C109        C  0.32317000  0.44575282  0.52845221    -0.12100
C110        C  0.29874139  0.41845220  0.56795462     0.03300
C111        C  0.27373260  0.44497521  0.60680322    -0.12700
C112        C  0.27136744  0.49835118  0.60683524     0.18200
C113        C  0.29667773  0.52558043  0.56849312    -0.09700
C114        C  0.32255594  0.49940307  0.53028907    -0.02700
H115        H  0.25489367  0.42376155  0.63664150     0.04700
C116        C  0.24325755  0.52514360  0.64761598     0.20200
H117        H  0.34053199  0.52146574  0.50054799     0.09900
C118        C  0.27043326  0.55635613  0.68140669    -0.16000
C119        C  0.24599969  0.58145895  0.72124579     0.02900
C120        C  0.19283948  0.57514083  0.72834587    -0.11400
C121        C  0.16540900  0.54496739  0.69343101    -0.01400
C122        C  0.19016696  0.51989786  0.65350099    -0.06600
H123        H  0.31124649  0.56071187  0.67708481     0.05900
H124        H  0.12493212  0.53883639  0.69851374     0.09300
Br125      Br  0.29378448  0.59854759  0.56429798    -0.06300
Br126      Br  0.29430670  0.34541390  0.57020396    -0.03200
Br127      Br  0.28837362  0.62330725  0.76433913    -0.00400
Br128      Br  0.14992446  0.47860504  0.60831274    -0.04700
C129        C  0.52959012  0.33050752  0.44876985    -0.12100
C130        C  0.53532874  0.33286697  0.50223782     0.03300
C131        C  0.57373597  0.30491453  0.52610792    -0.12700
C132        C  0.60918685  0.27711941  0.49773056     0.18200
C133        C  0.60658707  0.27881724  0.44412012    -0.09700
C134        C  0.56665345  0.30481998  0.42016227    -0.02700
H135        H  0.57576355  0.30467996  0.56729693     0.04700
C136        C  0.64811237  0.24645376  0.52485797     0.20200
H137        H  0.56351128  0.30307841  0.37906089     0.09900
C138        C  0.65163748  0.19388539  0.51525283    -0.16000
C139        C  0.69031918  0.16452896  0.53744598     0.02900
C140        C  0.72520872  0.18761102  0.57149207    -0.11400
C141        C  0.71930258  0.23938932  0.58355996    -0.01400
C142        C  0.68182338  0.26892094  0.56024650    -0.06600
H143        H  0.62534296  0.17601017  0.48876172     0.05900
H144        H  0.74597542  0.25783931  0.60928966     0.09300
Br145      Br  0.65661654  0.24670977  0.40180686    -0.06300
Br146      Br  0.49302629  0.37424837  0.54513740    -0.03200
Br147      Br  0.69658678  0.09517028  0.51509270    -0.00400
Br148      Br  0.68216671  0.34066612  0.57467547    -0.04700
C149        C  0.02930597  0.17293784  0.55635161    -0.12100
C150        C  0.07068973  0.19579545  0.58265573     0.03300
C151        C  0.10906605  0.22078478  0.55526316    -0.12700
C152        C  0.10683072  0.22470896  0.50195857     0.18200
C153        C  0.06707733  0.19984953  0.47567820    -0.09700
C154        C  0.02951571  0.17394044  0.50271471    -0.02700
H155        H  0.14027523  0.23851998  0.57583784     0.04700
C156        C  0.14626373  0.25456325  0.47452863     0.20200
H157        H  0.99868649  0.15663828  0.48123801     0.09900
C158        C  0.17608089  0.23041153  0.43749103    -0.16000
C159        C  0.21475796  0.25668681  0.41220857     0.02900
C160        C  0.22555984  0.30777924  0.42510400    -0.11400
C161        C  0.19443862  0.33263803  0.46054909    -0.01400
C162        C  0.15499793  0.30663233  0.48506397    -0.06600
H163        H  0.16962068  0.19060340  0.42855374     0.05900
H164        H  0.20227359  0.37184004  0.47106700     0.09300
Br165      Br  0.05921282  0.20351865  0.40305990    -0.06300
Br166      Br  0.07669234  0.19706130  0.65550407    -0.03200
Br167      Br  0.25086365  0.22119277  0.35962383    -0.00400
Br168      Br  0.11436949  0.34425105  0.53246890    -0.04700
C169        C  0.92466344  0.27649724  0.68705057    -0.12100
C170        C  0.91328576  0.28793476  0.73828614     0.03300
C171        C  0.94080456  0.32563328  0.76394606    -0.12700
C172        C  0.97878724  0.35359377  0.73919035     0.18200
C173        C  0.98812049  0.34444336  0.68727946    -0.09700
C174        C  0.96124717  0.30598831  0.66164207    -0.02700
H175        H  0.93243764  0.33335862  0.80353175     0.04700
C176        C  0.00594957  0.39393903  0.76784462     0.20200
H177        H  0.97082260  0.29750727  0.62249229     0.09900
C178        C  0.05815819  0.38924674  0.77891275    -0.16000
C179        C  0.08436356  0.42748572  0.80594663     0.02900
C180        C  0.05769222  0.47100022  0.82332757    -0.11400
C181        C  0.00490079  0.47404536  0.81333726    -0.01400
C182        C  0.97943996  0.43675785  0.78536350    -0.06600
H183        H  0.07870064  0.35603072  0.76581821     0.05900
H184        H  0.98315132  0.50690755  0.82528242     0.09300
Br185      Br  0.03684946  0.38366577  0.64993949    -0.06300
Br186      Br  0.86016589  0.25391193  0.77521302    -0.03200
Br187      Br  0.15622727  0.41795827  0.81603909    -0.00400
Br188      Br  0.90900535  0.44810686  0.76869251    -0.04700
C189        C  0.06959127  0.77289440  0.81368343    -0.12100
C190        C  0.04101187  0.81052825  0.83942644     0.03300
C191        C  0.01768078  0.84960765  0.81161868    -0.12700
C192        C  0.02104708  0.85123687  0.75839207     0.18200
C193        C  0.05024105  0.81454221  0.73287397    -0.09700
C194        C  0.07463811  0.77637888  0.76050102    -0.02700
H195        H  0.99552481  0.87808249  0.83144027     0.04700
C196        C  0.99445182  0.89181999  0.73005856     0.20200
H197        H  0.09587901  0.74784367  0.73978758     0.09900
C198        C  0.02339996  0.92723517  0.70289370    -0.16000
C199        C  0.00013876  0.96724999  0.67686459     0.02900
C200        C  0.94657608  0.97326483  0.67912774    -0.11400
C201        C  0.91750580  0.93635837  0.70463529    -0.01400
C202        C  0.94097965  0.89577927  0.72983847    -0.06600
H203        H  0.06454448  0.92386054  0.70224603     0.05900
H204        H  0.87645605  0.94002749  0.70674769     0.09300
Br205      Br  0.05459070  0.81226653  0.65998369    -0.06300
Br206      Br  0.02797859  0.80888892  0.91126171    -0.03200
Br207      Br  0.04435231  0.01135746  0.63873901    -0.00400
Br208      Br  0.89843558  0.84671290  0.76317048    -0.04700
C209        C  0.83229380  0.04328789  0.47524567    -0.12100
C210        C  0.81087783  0.06693174  0.43175138     0.03300
C211        C  0.78715644  0.03707235  0.39430206    -0.12700
C212        C  0.78382178  0.98396007  0.39924014     0.18200
C213        C  0.80832952  0.96005230  0.44037111    -0.09700
C214        C  0.83254543  0.98958874  0.47753847    -0.02700
H215        H  0.76940494  0.05557619  0.36193602     0.04700
C216        C  0.75355593  0.95464756  0.36162396     0.20200
H217        H  0.84922882  0.97024925  0.50995863     0.09900
C218        C  0.77823658  0.92070652  0.32883455    -0.16000
C219        C  0.75162638  0.89690233  0.28914669     0.02900
C220        C  0.69927896  0.90746089  0.28150803    -0.11400
C221        C  0.67395088  0.93847659  0.31672855    -0.01400
C222        C  0.70064164  0.96218980  0.35636300    -0.06600
H223        H  0.81876270  0.91406428  0.33307215     0.05900
H224        H  0.63393238  0.94717664  0.31150212     0.09300
Br225      Br  0.80588300  0.88761873  0.45008388    -0.06300
Br226      Br  0.80869358  0.13940937  0.42204250    -0.03200
Br227      Br  0.78931311  0.85132228  0.24620006    -0.00400
Br228      Br  0.66332327  0.00600422  0.40113811    -0.04700
C229        C  0.67958167  0.95356414  0.98007696    -0.12100
C230        C  0.69405413  0.92932607  0.93416806     0.03300
C231        C  0.71794919  0.95754452  0.89584468    -0.12700
C232        C  0.72829714  0.00961632  0.90205583     0.18200
C233        C  0.71229605  0.03431837  0.94655542    -0.09700
C234        C  0.68802219  0.00651924  0.98475747    -0.02700
H235        H  0.72975436  0.93845014  0.86132233     0.04700
C236        C  0.75693990  0.03689725  0.86204983     0.20200
H237        H  0.67755071  0.02641275  0.01924066     0.09900
C238        C  0.73165694  0.07200734  0.83070123    -0.16000
C239        C  0.75648245  0.09432034  0.78925310     0.02900
C240        C  0.80757153  0.08133776  0.77857398    -0.11400
C241        C  0.83361196  0.04862061  0.81197760    -0.01400
C242        C  0.80872968  0.02634360  0.85328245    -0.06600
H243        H  0.69204242  0.08104017  0.83772793     0.05900
H244        H  0.87277718  0.03810013  0.80443553     0.09300
Br245      Br  0.72603648  0.10516988  0.95846658    -0.06300
Br246      Br  0.68505705  0.85784948  0.92114965    -0.03200
Br247      Br  0.71884177  0.14241132  0.74890209    -0.00400
Br248      Br  0.84670174  0.98080974  0.89609717    -0.04700
C249        C  0.44607949  0.52524311  0.31967622    -0.12100
C250        C  0.42469442  0.57455920  0.31806027     0.03300
C251        C  0.44893374  0.61300976  0.28996399    -0.12700
C252        C  0.49411261  0.60288033  0.26340247     0.18200
C253        C  0.51568337  0.55420558  0.26564460    -0.09700
C254        C  0.49198359  0.51620576  0.29361518    -0.02700
H255        H  0.43271781  0.65092918  0.28899857     0.04700
C256        C  0.52025921  0.64354152  0.23520162     0.20200
H257        H  0.50905294  0.47866288  0.29331058     0.09900
C258        C  0.56429584  0.66510648  0.25649765    -0.16000
C259        C  0.59142806  0.70251391  0.23049259     0.02900
C260        C  0.57424949  0.71921540  0.18240403    -0.11400
C261        C  0.53149999  0.69579954  0.15999842    -0.01400
C262        C  0.50442370  0.65815617  0.18613810    -0.06600
H263        H  0.57755028  0.65272620  0.29359423     0.05900
H264        H  0.51742859  0.70877552  0.12339943     0.09300
Br265      Br  0.57673431  0.53729854  0.22944135    -0.06300
Br266      Br  0.36423843  0.59219672  0.35474273    -0.03200
Br267      Br  0.65187282  0.72936858  0.26224829    -0.00400
Br268      Br  0.44587898  0.62807631  0.15401152    -0.04700
C269        C  0.43392724  0.22555484  0.31162808    -0.12100
C270        C  0.45463245  0.18423405  0.33952125     0.03300
C271        C  0.48010418  0.14501523  0.31390749    -0.12700
C272        C  0.48692034  0.14656160  0.26101990     0.18200
C273        C  0.46585373  0.18714238  0.23316209    -0.09700
C274        C  0.43918811  0.22545986  0.25827508    -0.02700
H275        H  0.49557858  0.11344613  0.33555414     0.04700
C276        C  0.51450965  0.10483739  0.23513631     0.20200
H277        H  0.42432277  0.25664474  0.23568934     0.09900
C278        C  0.48842739  0.07553402  0.19874176    -0.16000
C279        C  0.51242386  0.03545516  0.17358811     0.02900
C280        C  0.56353524  0.02333638  0.18539934    -0.11400
C281        C  0.59006731  0.05334001  0.22106025    -0.01400
C282        C  0.56599198  0.09373184  0.24602770    -0.06600
H283        H  0.44886272  0.08376995  0.19003804     0.05900
H284        H  0.62906260  0.04407113  0.23115268     0.09300
Br285      Br  0.47554360  0.19426468  0.16109954    -0.06300
Br286      Br  0.45263723  0.17944863  0.41240114    -0.03200
Br287      Br  0.47336518  0.99940875  0.12293774    -0.00400
Br288      Br  0.60511849  0.13227406  0.29458678    -0.04700
C289        C  0.77782839  0.80309537  0.07859673    -0.12100
C290        C  0.81766310  0.82746235  0.05205889     0.03300
C291        C  0.85724005  0.79832243  0.03183416    -0.12700
C292        C  0.85708157  0.74501272  0.03578788     0.18200
C293        C  0.81911335  0.72100727  0.06476047    -0.09700
C294        C  0.78032433  0.75011516  0.08623474    -0.02700
H295        H  0.88687882  0.81711206  0.01021787     0.04700
C296        C  0.89516603  0.71530695  0.00704826     0.20200
H297        H  0.75027372  0.73069763  0.10669883     0.09900
C298        C  0.93026275  0.68494697  0.03338137    -0.16000
C299        C  0.96900515  0.65943471  0.00756444     0.02900
C300        C  0.97379108  0.66508173  0.95415956    -0.11400
C301        C  0.93673532  0.69310546  0.92763520    -0.01400
C302        C  0.89774190  0.71815724  0.95355129    -0.06600
H303        H  0.92819783  0.68200680  0.07446390     0.05900
H304        H  0.93967790  0.69807984  0.88681517     0.09300
Br305      Br  0.81533569  0.64833321  0.07194850    -0.06300
Br306      Br  0.81755189  0.89886533  0.03605561    -0.03200
Br307      Br  0.01406840  0.61800874  0.04798695    -0.00400
Br308      Br  0.84957600  0.75668168  0.91409553    -0.04700
C309        C  0.47357774  0.83046870  0.05514390    -0.12100
C310        C  0.43325975  0.80533222  0.08054281     0.03300
C311        C  0.39514403  0.78057553  0.05219709    -0.12700
C312        C  0.39609034  0.77992205  0.99878507     0.20200
C313        C  0.43396106  0.80794932  0.97350283    -0.09700
C314        C  0.47184518  0.83296297  0.00157192    -0.02700
H315        H  0.36522263  0.76034359  0.07201827     0.04700
C316        C  0.35746731  0.74948772  0.97047820     0.20200
H317        H  0.50173284  0.85233936  0.98091274     0.09900
C318        C  0.32319520  0.77409162  0.93766195    -0.16000
C319        C  0.28395846  0.74708856  0.91348348     0.02900
C320        C  0.27697618  0.69466087  0.92380504    -0.11400
C321        C  0.31322599  0.66945262  0.95406943    -0.01400
C322        C  0.35347585  0.69627535  0.97689115    -0.06600
H323        H  0.32653489  0.81476605  0.93135235     0.05900
H324        H  0.30906821  0.62912217  0.96192082     0.09300
Br325      Br  0.43852709  0.80982480  0.90065845    -0.06300
Br326      Br  0.42846076  0.80036328  0.15328118    -0.03200
Br327      Br  0.24198842  0.78383037  0.86593711    -0.00400
Br328      Br  0.40222060  0.65845833  0.01616127    -0.04700
loop_ 
_geom_bond_atom_site_label_1 
_geom_bond_atom_site_label_2 
_geom_bond_distance 
_geom_bond_site_symmetry_2 
_ccdc_geom_bond_type 
O1           C16   1.268       .  A
O1           Al9   1.941       .  S
C2           O12   1.270       .  A
C2            O3   1.261       .  A
C2          C309   1.492       .  S
O3           Al5   1.881       .  S
O4            C6   1.269       .  A
O4           Al5   1.951       .  S
Al5          O13   1.955       .  S
Al5          O15   1.873       .  S
Al5          O14   1.767       .  S
C6           O19   1.259       .  A
C6          C229   1.493   1_554  S
O7           C17   1.271       .  A
O7           Al9   1.948       .  S
O8           C21   1.269       .  A
O8          Al18   1.949       .  S
Al9          O22   1.870       .  S
Al9          O19   1.879       .  S
Al9          O14   1.766       .  S
O10          C17   1.258       .  A
O10         Al18   1.867       .  S
O11          C20   1.256       .  A
O11         Al18   1.868       .  S
O12         Al18   1.957       .  S
O13          C20   1.270       .  A
O14         Al18   1.767       .  S
O15          C16   1.259       .  A
C16         C289   1.478       .  S
C17         C280   1.475   1_565  S
C20         C260   1.469       .  S
C21          O22   1.255       .  A
C21         C220   1.477       .  S
O23          C38   1.272       .  A
O23         Al31   1.959       .  S
C24          O34   1.271       .  A
C24          O25   1.257       .  A
C24         C200   1.478   1_545  S
O25         Al27   1.865       .  S
O26          C28   1.270       .  A
O26         Al27   1.961       .  S
Al27         O35   1.948       .  S
Al27         O37   1.865       .  S
Al27         O36   1.766       .  S
C28          O41   1.259       .  A
C28         C149   1.492   1_655  S
O29          C39   1.269       .  A
O29         Al31   1.950       .  S
O30          C43   1.269       .  A
O30         Al40   1.949       .  S
Al31         O44   1.867       .  S
Al31         O41   1.875       .  S
Al31         O36   1.765       .  S
O32          C39   1.258       .  A
O32         Al40   1.873       .  S
O33          C42   1.259       .  A
O33         Al40   1.885       .  S
O34         Al40   1.945       .  S
O35          C42   1.269       .  A
O36         Al40   1.768       .  S
O37          C38   1.256       .  A
C38         C169   1.475       .  S
C39         C209   1.488       .  S
C42         C240   1.480       .  S
C43          O44   1.258       .  A
C43         C140   1.476       .  S
O45          C60   1.270       .  A
O45         Al53   1.961       .  S
C46          O56   1.269       .  A
C46          O47   1.259       .  A
C46         C269   1.489       .  S
O47         Al49   1.872       .  S
O48          C50   1.269       .  A
O48         Al49   1.951       .  S
Al49         O57   1.944       .  S
Al49         O59   1.866       .  S
Al49         O58   1.763       .  S
C50          O63   1.259       .  A
C50         C100   1.481       .  S
O51          C61   1.271       .  A
O51         Al53   1.952       .  S
O52          C65   1.270       .  A
O52         Al62   1.951       .  S
Al53         O66   1.880       .  S
Al53         O63   1.868       .  S
Al53         O58   1.768       .  S
O54          C61   1.259       .  A
O54         Al62   1.878       .  S
O55          C64   1.258       .  A
O55         Al62   1.872       .  S
O56         Al62   1.954       .  S
O57          C64   1.269       .  A
O58         Al62   1.763       .  S
O59          C60   1.256       .  A
C60         C249   1.483       .  S
C61         C160   1.478       .  S
C64         C129   1.479       .  S
C65          O66   1.261       .  A
C65         C109   1.489       .  S
O67          C82   1.272       .  A
O67         Al75   1.958       .  S
C68          O78   1.272       .  A
C68          O69   1.257       .  A
C68         C320   1.482       .  S
O69         Al71   1.873       .  S
O70          C72   1.268       .  A
O70         Al71   1.948       .  S
Al71         O79   1.947       .  S
Al71         O81   1.863       .  S
Al71         O80   1.766       .  S
C72          O85   1.258       .  A
C72         C189   1.481       .  S
O73          C83   1.274       .  A
O73         Al75   1.968       .  S
O74          C87   1.269       .  A
O74         Al84   1.964       .  S
Al75         O88   1.869       .  S
Al75         O85   1.866       .  S
Al75         O80   1.762       .  S
O76          C83   1.256       .  A
O76         Al84   1.861       .  S
O77          C86   1.257       .  A
O77         Al84   1.863       .  S
O78         Al84   1.958       .  S
O79          C86   1.271       .  A
O80         Al84   1.766       .  S
O81          C82   1.254       .  A
C82         C300   1.480   1_455  S
C83         C120   1.483       .  S
C86          C89   1.475   1_556  S
C87          O88   1.257       .  A
C87         C180   1.491       .  S
C89          C90   1.415       .  A
C89          C94   1.404       .  A
C90          C91   1.394       .  A
C90        Br106   1.924   1_554  S
C91          C92   1.400       .  A
C91          H95   1.084       .  S
C92          C96   1.476       .  S
C92          C93   1.410       .  A
C93          C94   1.397       .  A
C93        Br105   1.920       .  S
C94          H97   1.084       .  S
C96          C98   1.404       .  A
C96         C102   1.405       .  A
C98          C99   1.399       .  A
C98         H103   1.083       .  S
C99         C100   1.415       .  A
C99        Br107   1.921       .  S
C100        C101   1.408       .  A
C101        C102   1.393       .  A
C101        H104   1.083       .  S
C102       Br108   1.921       .  S
C109        C110   1.418       .  A
C109        C114   1.409       .  A
C110        C111   1.402       .  A
C110       Br126   1.922       .  S
C111        C112   1.403       .  A
C111        H115   1.084       .  S
C112        C116   1.482       .  S
C112        C113   1.406       .  A
C113        C114   1.396       .  A
C113       Br125   1.920       .  S
C114        H117   1.083       .  S
C116        C118   1.399       .  A
C116        C122   1.410       .  A
C118        C119   1.396       .  A
C118        H123   1.084       .  S
C119        C120   1.419       .  A
C119       Br127   1.925       .  S
C120        C121   1.406       .  A
C121        C122   1.402       .  A
C121        H124   1.083       .  S
C122       Br128   1.918       .  S
C129        C130   1.414       .  A
C129        C134   1.406       .  A
C130        C131   1.395       .  A
C130       Br146   1.923       .  S
C131        C132   1.401       .  A
C131        H135   1.084       .  S
C132        C136   1.482       .  S
C132        C133   1.411       .  A
C133        C134   1.399       .  A
C133       Br145   1.921       .  S
C134        H137   1.084       .  S
C136        C138   1.406       .  A
C136        C142   1.408       .  A
C138        C139   1.401       .  A
C138        H143   1.084       .  S
C139        C140   1.412       .  A
C139       Br147   1.920       .  S
C140        C141   1.404       .  A
C141        C142   1.393       .  A
C141        H144   1.084       .  S
C142       Br148   1.921       .  S
C149        C150   1.417       .  A
C149        C154   1.410       .  A
C150        C151   1.404       .  A
C150       Br166   1.921       .  S
C151        C152   1.406       .  A
C151        H155   1.083       .  S
C152        C156   1.488       .  S
C152        C153   1.407       .  A
C153        C154   1.395       .  A
C153       Br165   1.921       .  S
C154        H157   1.083   1_455  S
C156        C158   1.404       .  A
C156        C162   1.412       .  A
C158        C159   1.398       .  A
C158        H163   1.084       .  S
C159        C160   1.411       .  A
C159       Br167   1.921       .  S
C160        C161   1.404       .  A
C161        C162   1.400       .  A
C161        H164   1.084       .  S
C162       Br168   1.918       .  S
C169        C170   1.413       .  A
C169        C174   1.405       .  A
C170        C171   1.395       .  A
C170       Br186   1.923       .  S
C171        C172   1.401       .  A
C171        H175   1.084       .  S
C172        C176   1.479   1_655  S
C172        C173   1.408       .  A
C173        C174   1.401       .  A
C173       Br185   1.917   1_655  S
C174        H177   1.084       .  S
C176        C178   1.405       .  A
C176        C182   1.402   1_455  A
C178        C179   1.406       .  A
C178        H183   1.083       .  S
C179        C180   1.417       .  A
C179       Br187   1.920       .  S
C180        C181   1.411       .  A
C181        C182   1.391   1_455  A
C181        H184   1.082   1_455  S
C182       Br188   1.921       .  S
C189        C190   1.415       .  A
C189        C194   1.408       .  A
C190        C191   1.400       .  A
C190       Br206   1.921       .  S
C191        C192   1.403       .  A
C191        H195   1.083   1_455  S
C192        C196   1.475   1_455  S
C192        C193   1.404       .  A
C193        C194   1.393       .  A
C193       Br205   1.921       .  S
C194        H197   1.083       .  S
C196        C198   1.399   1_655  A
C196        C202   1.408       .  A
C198        C199   1.394       .  A
C198        H203   1.084       .  S
C199        C200   1.417   1_455  A
C199       Br207   1.925   1_565  S
C200        C201   1.406       .  A
C201        C202   1.397       .  A
C201        H204   1.084       .  S
C202       Br208   1.919       .  S
C209        C210   1.416       .  A
C209        C214   1.411   1_545  A
C210        C211   1.400       .  A
C210       Br226   1.921       .  S
C211        C212   1.403   1_545  A
C211        H215   1.084       .  S
C212        C216   1.479       .  S
C212        C213   1.404       .  A
C213        C214   1.396       .  A
C213       Br225   1.920       .  S
C214        H217   1.083       .  S
C216        C218   1.401       .  A
C216        C222   1.409       .  A
C218        C219   1.398       .  A
C218        H223   1.083       .  S
C219        C220   1.415       .  A
C219       Br227   1.923       .  S
C220        C221   1.403       .  A
C221        C222   1.397       .  A
C221        H224   1.083       .  S
C222       Br228   1.919   1_565  S
C229        C230   1.417       .  A
C229        C234   1.413   1_565  A
C230        C231   1.402       .  A
C230       Br246   1.921       .  S
C231        C232   1.402   1_565  A
C231        H235   1.083       .  S
C232        C236   1.481       .  S
C232        C233   1.403       .  A
C233        C234   1.398       .  A
C233       Br245   1.919       .  S
C234        H237   1.083   1_556  S
C236        C238   1.402       .  A
C236        C242   1.408       .  A
C238        C239   1.401       .  A
C238        H243   1.084       .  S
C239        C240   1.414       .  A
C239       Br247   1.921       .  S
C240        C241   1.405       .  A
C241        C242   1.399       .  A
C241        H244   1.084       .  S
C242       Br248   1.919   1_545  S
C249        C250   1.412       .  A
C249        C254   1.410       .  A
C250        C251   1.405       .  A
C250       Br266   1.919       .  S
C251        C252   1.405       .  A
C251        H255   1.084       .  S
C252        C256   1.472       .  S
C252        C253   1.400       .  A
C253        C254   1.389       .  A
C253       Br265   1.921       .  S
C254        H257   1.083       .  S
C256        C258   1.400       .  A
C256        C262   1.407       .  A
C258        C259   1.394       .  A
C258        H263   1.084       .  S
C259        C260   1.410       .  A
C259       Br267   1.921       .  S
C260        C261   1.405       .  A
C261        C262   1.400       .  A
C261        H264   1.084       .  S
C262       Br268   1.918       .  S
C269        C270   1.417       .  A
C269        C274   1.410       .  A
C270        C271   1.402       .  A
C270       Br286   1.921       .  S
C271        C272   1.403       .  A
C271        H275   1.084       .  S
C272        C276   1.481       .  S
C272        C273   1.406       .  A
C273        C274   1.394       .  A
C273       Br285   1.922       .  S
C274        H277   1.084       .  S
C276        C278   1.402       .  A
C276        C282   1.411       .  A
C278        C279   1.395       .  A
C278        H283   1.084       .  S
C279        C280   1.412       .  A
C279       Br287   1.923   1_545  S
C280        C281   1.405       .  A
C281        C282   1.400       .  A
C281        H284   1.084       .  S
C282       Br288   1.920       .  S
C289        C290   1.413       .  A
C289        C294   1.407       .  A
C290        C291   1.398       .  A
C290       Br306   1.922       .  S
C291        C292   1.403       .  A
C291        H295   1.085       .  S
C292        C296   1.479       .  S
C292        C293   1.407       .  A
C293        C294   1.395       .  A
C293       Br305   1.920       .  S
C294        H297   1.084       .  S
C296        C298   1.400       .  A
C296        C302   1.410   1_554  A
C298        C299   1.397       .  A
C298        H303   1.084       .  S
C299        C300   1.418   1_554  A
C299       Br307   1.924   1_655  S
C300        C301   1.403       .  A
C301        C302   1.398       .  A
C301        H304   1.084       .  S
C302       Br308   1.921       .  S
C309        C310   1.417       .  A
C309        C314   1.410       .  A
C310        C311   1.402       .  A
C310       Br326   1.921       .  S
C311        C312   1.404   1_554  A
C311        H315   1.084       .  S
C312        C316   1.486       .  S
C312        C313   1.406       .  A
C313        C314   1.397   1_556  A
C313       Br325   1.920       .  S
C314        H317   1.083   1_554  S
C316        C318   1.402       .  A
C316        C322   1.411       .  A
C318        C319   1.399       .  A
C318        H323   1.084       .  S
C319        C320   1.415       .  A
C319       Br327   1.923       .  S
C320        C321   1.404       .  A
C321        C322   1.401       .  A
C321        H324   1.084       .  S
C322       Br328   1.918   1_556  S
