geometry optimzed in LAMMPS
_audit_creation_date              2020-11-30 
_audit_creation_method            'lammps2cif' 
_symmetry_space_group_name_H-M    'P1' 
_symmetry_Int_Tables_number       1 
_symmetry_cell_setting            triclinic 
loop_ 
_symmetry_equiv_pos_as_xyz 
  x,y,z 
_cell_length_a                    28.46885827 
_cell_length_b                    28.391374124986193 
_cell_length_c                    35.71459734666371 
_cell_angle_alpha                 91.51979942797637 
_cell_angle_beta                  89.73226320096065 
_cell_angle_gamma                 119.66879757044926 
loop_ 
_atom_site_label 
_atom_site_type_symbol 
_atom_site_fract_x 
_atom_site_fract_y 
_atom_site_fract_z 
_atom_site_charge 
C1          C  0.40489033  0.20485916  0.42371946     0.03800
C2          C  0.37765323  0.23512183  0.42566878    -0.12400
C3          C  0.32592993  0.21286193  0.44153343     0.01300
C4          C  0.30203237  0.16057496  0.45604624    -0.10900
C5          C  0.32838565  0.12987173  0.45431326     0.03800
C6          C  0.37973621  0.15247871  0.43822179    -0.10300
H7          H  0.39511444  0.27497619  0.41405414     0.09400
H8          H  0.26269166  0.14385452  0.46900826     0.06900
H9          H  0.39965671  0.12843463  0.43596187     0.06700
C10         C  0.28722118  0.32153454  0.46267233     0.03800
C11         C  0.31874765  0.29608054  0.45735650    -0.12400
C12         C  0.29541907  0.24288393  0.44252882     0.01300
C13         C  0.24083234  0.21605642  0.43159144    -0.10900
C14         C  0.20869773  0.24056577  0.43651928     0.03800
C15         C  0.23255525  0.29383007  0.45131433    -0.10300
H16         H  0.36093457  0.31664171  0.46566379     0.09400
H17         H  0.22285135  0.17505882  0.41996941     0.06900
H18         H  0.20772503  0.31247123  0.45622428     0.06700
C19         C  0.06366351  0.19523722  0.40537328     0.03800
C20         C  0.03772481  0.14126638  0.41719486    -0.12400
C21         C  0.06649597  0.12032663  0.43578426     0.01300
C22         C  0.12189412  0.15416253  0.44253298    -0.10900
C23         C  0.14925335  0.20767224  0.43016817     0.03800
C24         C  0.11981238  0.22836751  0.41193604    -0.10300
H25         H  0.99499209  0.11518018  0.41139479     0.09400
H26         H  0.14394445  0.13890983  0.45806075     0.06900
H27         H  0.14116347  0.26923839  0.40175350     0.06700
C28         C  0.08312048  0.87352613  0.43584109     0.03800
C29         C  0.05072812  0.89806115  0.44138416    -0.12400
C30         C  0.07278782  0.95024572  0.45784661     0.01300
C31         C  0.12673184  0.97678872  0.47022207    -0.10900
C32         C  0.15944713  0.95292938  0.46538226     0.03800
C33         C  0.13704033  0.90086919  0.44880459    -0.10300
H34         H  0.00902913  0.87781894  0.43208257     0.09400
H35         H  0.14385988  0.01713832  0.48285193     0.06900
H36         H  0.16263293  0.88311854  0.44376547     0.06700
C37         C  0.96342445  0.98752513  0.47889631     0.03800
C38         C  0.99026600  0.95703882  0.47545836    -0.12400
C39         C  0.04184328  0.97980218  0.45932660     0.01300
C40         C  0.06562751  0.03258596  0.44562781    -0.10900
C41         C  0.03924230  0.06324838  0.44835417     0.03800
C42         C  0.98799199  0.04007761  0.46473641    -0.10300
H43         H  0.97198021  0.91625532  0.48571198     0.09400
H44         H  0.10494830  0.04972826  0.43258464     0.06900
H45         H  0.96799184  0.06395719  0.46795524     0.06700
C46         C  0.30359123  0.99892434  0.49922079     0.03800
C47         C  0.32952140  0.05278117  0.48711718    -0.12400
C48         C  0.30103263  0.07326103  0.46765618     0.01300
C49         C  0.24588775  0.03926479  0.46040715    -0.10900
C50         C  0.21847652  0.98596233  0.47298806     0.03800
C51         C  0.24754089  0.96553570  0.49210066    -0.10300
H52         H  0.37215609  0.07909300  0.49314088     0.09400
H53         H  0.22409638  0.05414037  0.44419800     0.06900
H54         H  0.22601655  0.92461953  0.50213220     0.06700
O55         O  0.51299388  0.82322967  0.65397661    -0.81200
C56         C  0.48701757  0.66213031  0.75711198     0.98200
O57         O  0.45120587  0.66056859  0.73547696    -0.70300
O58         O  0.44240032  0.74756145  0.74495862    -0.73900
Al59       Al  0.45137886  0.71273511  0.70206252     1.49000
C60         C  0.45871768  0.79744930  0.74941795     0.93400
O61         O  0.59230758  0.84340688  0.74383067    -0.80100
O62         O  0.59983579  0.75666106  0.66025697    -0.73700
Al63       Al  0.55109566  0.82826230  0.69901337     1.90100
O64         O  0.62204137  0.78630247  0.73455788    -0.72700
O65         O  0.52014658  0.66247315  0.67727371    -0.72600
O66         O  0.53624523  0.69512265  0.75188117    -0.78200
O67         O  0.45257870  0.67289637  0.65886614    -0.76400
O68         O  0.52283531  0.75646219  0.70217086    -1.12600
O69         O  0.43472632  0.75458160  0.66909093    -0.71800
C70         C  0.46251053  0.79501208  0.64914947     0.99000
C71         C  0.62463371  0.82691836  0.75177950     0.95400
Al72       Al  0.56588855  0.72774809  0.70569186     1.55600
O73         O  0.49659182  0.83205660  0.72960890    -0.76400
C74         C  0.48002661  0.64920904  0.65593077     0.99500
C75         C  0.62296508  0.80552859  0.65129439     0.94400
O76         O  0.61185102  0.83899477  0.66770810    -0.81700
C77         C  0.06478390  0.19960609  0.98678409     0.03800
C78         C  0.11756085  0.22959847  0.97305118    -0.12400
C79         C  0.14344162  0.20375363  0.95608912     0.01300
C80         C  0.11540897  0.14711646  0.95188727    -0.10900
C81         C  0.06254058  0.11588572  0.96517982     0.03800
C82         C  0.03702366  0.14238949  0.98263065    -0.10300
H83         H  0.13938835  0.27333450  0.97686801     0.09400
H84         H  0.13481696  0.12709291  0.93780628     0.06900
H85         H  0.99614059  0.11865297  0.99273630     0.06700
C86         C  0.96369445  0.97079350  0.93246510     0.03800
C87         C  0.98477206  0.02618343  0.94263447    -0.12400
C88         C  0.03566568  0.05579117  0.96021319     0.01300
C89         C  0.06463085  0.02914451  0.96873676    -0.10900
C90         C  0.04444418  0.97413521  0.95909153     0.03800
C91         C  0.99352844  0.94509034  0.94157042    -0.10300
H92         H  0.96304099  0.04715282  0.93601055     0.09400
H93         H  0.10405433  0.05191593  0.98208491     0.06900
H94         H  0.97839380  0.90302037  0.93317429     0.06700
C95         C  0.09461364  0.87668106  0.98586459     0.03800
C96         C  0.14887130  0.90671261  0.97472192    -0.12400
C97         C  0.16884544  0.95734536  0.95831447     0.01300
C98         C  0.13357731  0.97782860  0.95273607    -0.10900
C99         C  0.07937673  0.94922087  0.96397693     0.03800
C100        C  0.05984835  0.89825354  0.98025169    -0.10300
H101        H  0.17619076  0.89124797  0.97987123     0.09400
H102        H  0.14838298  0.01644042  0.93936324     0.06900
H103        H  0.01849310  0.87703266  0.98978031     0.06700
C104        C  0.31021063  0.99971109  0.92127800     0.03800
C105        C  0.25541516  0.96713341  0.93113686    -0.12400
C106        C  0.22708021  0.99045685  0.94868922     0.01300
C107        C  0.25431413  0.04644243  0.95665861    -0.10900
C108        C  0.30853581  0.07942960  0.94680176     0.03800
C109        C  0.33651528  0.05565266  0.92989796    -0.10300
H110        H  0.23448665  0.92395464  0.92504421     0.09400
H111        H  0.23317728  0.06470938  0.97071854     0.06900
H112        H  0.37823254  0.08123653  0.92177877     0.06700
C113        C  0.40678638  0.22657036  0.97535419     0.03800
C114        C  0.38524457  0.17029870  0.96860391    -0.12400
C115        C  0.33397006  0.13910102  0.95184440     0.01300
C116        C  0.30486495  0.16452001  0.94126978    -0.10900
C117        C  0.32510226  0.21997281  0.94836190     0.03800
C118        C  0.37631364  0.25090199  0.96495776    -0.13100
H119        H  0.40639840  0.14987330  0.97796855     0.09400
H120        H  0.26554870  0.14068740  0.92793155     0.06900
H121        H  0.39154375  0.29364140  0.97117026     0.06700
C122        C  0.27493424  0.31371748  0.91497152     0.03800
C123        C  0.30962346  0.29288648  0.92268565    -0.12400
C124        C  0.29016970  0.24379926  0.94120401     0.01300
C125        C  0.23613774  0.21594466  0.95247645    -0.10900
C126        C  0.20075269  0.23531592  0.94449356     0.03800
C127        C  0.22043964  0.28429154  0.92568170    -0.10300
H128        H  0.35095345  0.31318488  0.91309515     0.09400
H129        H  0.22163604  0.17898002  0.96789830     0.06900
H130        H  0.19318351  0.29931048  0.91902334     0.06700
O131        O  0.91574048  0.50406898  0.15180246    -0.81200
C132        C  0.74561343  0.39675590  0.25690246     0.98200
O133        O  0.74904595  0.42875032  0.23183375    -0.70300
O134        O  0.83991949  0.51966820  0.23611775    -0.73900
Al135      Al  0.80374480  0.47022444  0.19645458     1.49000
C136        C  0.88986604  0.54694589  0.24287279     0.93400
O137        O  0.92549286  0.44850024  0.24520668    -0.80100
O138        O  0.83354286  0.34814228  0.16796845    -0.73700
Al139      Al  0.91408083  0.47259560  0.19879307     1.90100
O140        O  0.86060358  0.36433403  0.24187824    -0.72700
O141        O  0.74328230  0.34776343  0.18172121    -0.72600
O142        O  0.77451246  0.37445154  0.25571290    -0.78200
O143        O  0.76337909  0.42433142  0.15559625    -0.76400
O144        O  0.84180093  0.43625989  0.20210646    -1.12600
O145        O  0.84887431  0.52002564  0.16046614    -0.71800
C146        C  0.88999659  0.52754304  0.14263414     0.99000
C147        C  0.90464534  0.40058158  0.25594186     0.95400
Al148      Al  0.80629798  0.36515563  0.21111946     1.55600
O149        O  0.92303353  0.53574225  0.22672059    -0.76400
C150        C  0.73516065  0.37347314  0.15667246     0.99500
C151        C  0.88193144  0.36909924  0.15757516     0.94400
O152        O  0.91779084  0.41515264  0.17047754    -0.81700
C153        C  0.54531125  0.27945636  0.02554883     0.19300
C154        C  0.57165509  0.25348697  0.04060797    -0.18800
C155        C  0.61580312  0.28148928  0.06492843    -0.11000
C156        C  0.63462832  0.33633107  0.07467688     0.21600
C157        C  0.60997390  0.36303633  0.05828296    -0.20400
C158        C  0.56574236  0.33501617  0.03399134    -0.11200
C159        C  0.67993691  0.36690074  0.10157710    -0.15400
C160        C  0.69157951  0.34281803  0.12908870    -0.29200
C161        C  0.49673613  0.24704124  0.00143067    -0.03500
C162        C  0.45811957  0.26059979  0.99644123    -0.40000
H163        H  0.55745049  0.21105481  0.03401708     0.12700
H164        H  0.63516666  0.26007418  0.07579389     0.12400
H165        H  0.62446144  0.40556155  0.06476680     0.11800
H166        H  0.54818080  0.35728343  0.02181285     0.12000
H167        H  0.70249611  0.41083334  0.09993064     0.14800
H168        H  0.66769911  0.29930085  0.13234731     0.13600
H169        H  0.49181151  0.20959836  0.98896560     0.11200
H170        H  0.46316913  0.29792587  0.00922100     0.13200
C171        C  0.97761437  0.64317392  0.07641712     0.19300
C172        C  0.02919760  0.68856283  0.08176432    -0.18800
C173        C  0.04592417  0.73495707  0.06058299    -0.11000
C174        C  0.01159627  0.73668938  0.03299153     0.21600
C175        C  0.96060950  0.69067222  0.02693920    -0.20400
C176        C  0.94387947  0.64431979  0.04816390    -0.11200
C177        C  0.02637056  0.78648866  0.01150901    -0.15400
C178        C  0.07791106  0.82522170  0.00573779    -0.29200
C179        C  0.95946719  0.59657193  0.10187310    -0.03500
C180        C  0.90736842  0.56561624  0.11147064    -0.40000
H181        H  0.05594607  0.68889490  0.10336831     0.12700
H182        H  0.08496040  0.76986334  0.06693636     0.12400
H183        H  0.93343200  0.69069899  0.00583916     0.11800
H184        H  0.90441384  0.60960827  0.04245111     0.12000
H185        H  0.99356108  0.79023802  0.99932356     0.14800
H186        H  0.11025890  0.81857137  0.01530365     0.13600
H187        H  0.99014824  0.59169797  0.11648781     0.11200
H188        H  0.87696899  0.57365322  0.09981378     0.13200
C189        C  0.99000333  0.24900725  0.05464612     0.19300
C190        C  0.94143233  0.22555090  0.07463333    -0.18800
C191        C  0.92620535  0.25792197  0.09591004    -0.11000
C192        C  0.95953210  0.31477639  0.09782404     0.21600
C193        C  0.00846179  0.33811304  0.07837564    -0.20400
C194        C  0.02361684  0.30582124  0.05706968    -0.11200
C195        C  0.94625278  0.35053028  0.12156219    -0.15400
C196        C  0.89542600  0.33687821  0.13101313    -0.29200
C197        C  0.00600532  0.21311227  0.03347529    -0.03500
C198        C  0.04137489  0.23090367  0.00505932    -0.40000
H199        H  0.91531011  0.18194781  0.07398018     0.12700
H200        H  0.88911213  0.23800088  0.11160541     0.12400
H201        H  0.03537198  0.38158220  0.07992814     0.11800
H202        H  0.06251876  0.32567323  0.04355961     0.12000
H203        H  0.97937958  0.38927588  0.13151130     0.14800
H204        H  0.86184362  0.29928347  0.12006742     0.13600
H205        H  0.98914621  0.17151465  0.04218273     0.11200
H206        H  0.05740512  0.27225570  0.99613518     0.13200
C207        C  0.40286353  0.54338979  0.82248003     0.19300
C208        C  0.34868892  0.51626763  0.83379983    -0.18800
C209        C  0.32943405  0.47180838  0.85714937    -0.11000
C210        C  0.36403749  0.45302397  0.86937524     0.21600
C211        C  0.41860017  0.48120363  0.85904282    -0.20400
C212        C  0.43784954  0.52562871  0.83567764    -0.11200
C213        C  0.34510102  0.40415063  0.89249833    -0.15400
C214        C  0.29315873  0.36415851  0.89377910    -0.29200
C215        C  0.42000540  0.58705098  0.79480088    -0.03500
C216        C  0.47187715  0.62361358  0.78785069    -0.40000
H217        H  0.32090970  0.52920215  0.82419675     0.12700
H218        H  0.28757290  0.45258143  0.86545497     0.12400
H219        H  0.44618641  0.46777002  0.86817334     0.11800
H220        H  0.47956140  0.54439444  0.82709922     0.12000
H221        H  0.37576558  0.40034879  0.90788730     0.14800
H222        H  0.26226036  0.36782073  0.87862740     0.13600
H223        H  0.38824992  0.58846621  0.77892792     0.11200
H224        H  0.50443295  0.62494795  0.80431409     0.13200
C225        C  0.74914973  0.87248140  0.81713401     0.19300
C226        C  0.77987077  0.84857606  0.82778146    -0.18800
C227        C  0.82440370  0.87597992  0.85201534    -0.11000
C228        C  0.83934966  0.92825193  0.86635022     0.21600
C229        C  0.80876342  0.95223391  0.85563602    -0.20400
C230        C  0.76418716  0.92482513  0.83143014    -0.11200
C231        C  0.88833499  0.96052000  0.89040600    -0.15400
C232        C  0.91217427  0.93858769  0.91077277    -0.29200
C233        C  0.70396132  0.84245981  0.78962214    -0.03500
C234        C  0.66656743  0.85654175  0.78096613    -0.40000
H235        H  0.76984512  0.80870077  0.81685645     0.12700
H236        H  0.84775827  0.85655700  0.85837539     0.12400
H237        H  0.81975883  0.99273858  0.86577500     0.11800
H238        H  0.74285829  0.94565914  0.82345037     0.12000
H239        H  0.90533722  0.00412510  0.89063775     0.14800
H240        H  0.89458174  0.89486335  0.91053666     0.13600
H241        H  0.70164474  0.80692891  0.77556545     0.11200
H242        H  0.66644082  0.89074307  0.79503481     0.13200
C243        C  0.35137487  0.91537170  0.85537116     0.19300
C244        C  0.32887347  0.86053399  0.84445662    -0.18800
C245        C  0.35699424  0.84327911  0.82071022    -0.11000
C246        C  0.40836422  0.88076090  0.80712149     0.21600
C247        C  0.43040436  0.93568704  0.81756196    -0.20400
C248        C  0.40243989  0.95288229  0.84145231    -0.11200
C249        C  0.43884653  0.86471424  0.78057895    -0.15400
C250        C  0.43116409  0.81406680  0.77755091    -0.29200
C251        C  0.31900912  0.93258076  0.87902165    -0.03500
C252        C  0.34148575  0.97796619  0.90093263    -0.40000
H253        H  0.28918655  0.83098454  0.85412537     0.12700
H254        H  0.33752591  0.80084594  0.81231641     0.12400
H255        H  0.46934634  0.96553570  0.80697817     0.11800
H256        H  0.42034742  0.99580799  0.84790563     0.12000
H257        H  0.46899832  0.89590033  0.76309900     0.14800
H258        H  0.40251999  0.78275054  0.79557793     0.13600
H259        H  0.27538774  0.90738175  0.87746015     0.11200
H260        H  0.38521464  0.00239127  0.90255254     0.13200
C261        C  0.42100625  0.87749424  0.58665778     0.19300
C262        C  0.43151066  0.93115941  0.59063635    -0.18800
C263        C  0.40010374  0.94841561  0.57154709    -0.11000
C264        C  0.35787238  0.91254524  0.54720428     0.21600
C265        C  0.34787942  0.85898308  0.54289410    -0.20400
C266        C  0.37910121  0.84163335  0.56222637    -0.11200
C267        C  0.32265993  0.92884940  0.52662976    -0.15400
C268        C  0.33691223  0.98090976  0.52030431    -0.29200
C269        C  0.45373989  0.86029482  0.60907116    -0.03500
C270        C  0.43394872  0.80944009  0.62113635    -0.40000
H271        H  0.46330668  0.95955388  0.60941851     0.12700
H272        H  0.40852255  0.98955419  0.57680019     0.12400
H273        H  0.31579711  0.83039664  0.52438357     0.11800
H274        H  0.37051522  0.80026152  0.55776424     0.12000
H275        H  0.28490053  0.89654189  0.51502539     0.14800
H276        H  0.37656038  0.01270218  0.52948481     0.13600
H277        H  0.49317904  0.89160754  0.61926202     0.11200
H278        H  0.39280816  0.77876659  0.61390801     0.13200
C279        C  0.75073342  0.88653893  0.59204202     0.19300
C280        C  0.77826183  0.93777733  0.57607817    -0.18800
C281        C  0.82339737  0.95191717  0.55342527    -0.11000
C282        C  0.84227560  0.91504979  0.54645451     0.21600
C283        C  0.81540911  0.86426340  0.56307106    -0.20400
C284        C  0.77020208  0.85005967  0.58552763    -0.11200
C285        C  0.89186471  0.92943283  0.52431462    -0.15400
C286        C  0.91062059  0.96759324  0.49806228    -0.29200
C287        C  0.70399119  0.87325698  0.61712714    -0.03500
C288        C  0.66474173  0.82192903  0.62218829    -0.40000
H289        H  0.76494966  0.96705532  0.58129342     0.12700
H290        H  0.84417352  0.99231483  0.54246748     0.12400
H291        H  0.82972201  0.83557993  0.55890570     0.11800
H292        H  0.75171478  0.81103049  0.59858480     0.12000
H293        H  0.91381558  0.90839817  0.53061270     0.14800
H294        H  0.88789920  0.98783810  0.49170562     0.13600
H295        H  0.70253785  0.90620368  0.63229373     0.11200
H296        H  0.66528642  0.78915832  0.60618124     0.13200
C297        C  0.97555265  0.66751480  0.31041996     0.19300
C298        C  0.01703992  0.67974054  0.33644429    -0.18800
C299        C  0.03289338  0.72276978  0.36255903    -0.11000
C300        C  0.00781145  0.75497085  0.36277946     0.21600
C301        C  0.96668081  0.74276888  0.33639649    -0.20400
C302        C  0.95091362  0.69991581  0.31044429    -0.11200
C303        C  0.02397859  0.80298901  0.38839785    -0.15400
C304        C  0.06371235  0.82129721  0.41445429    -0.29200
C305        C  0.95903910  0.62135040  0.28324288    -0.03500
C306        C  0.90829602  0.59305580  0.26968266    -0.40000
H307        H  0.03688644  0.65559871  0.33678175     0.12700
H308        H  0.06492774  0.73038989  0.38205747     0.12400
H309        H  0.94697636  0.76702879  0.33547470     0.11800
H310        H  0.92009558  0.69304862  0.28999588     0.12000
H311        H  0.00362656  0.82608930  0.38380053     0.14800
H312        H  0.08619372  0.80020421  0.41838796     0.13600
H313        H  0.98838615  0.60894943  0.27553271     0.11200
H314        H  0.87783369  0.60277567  0.27945526     0.13200
C315        C  0.95192383  0.31828459  0.31406285     0.19300
C316        C  0.94527689  0.26625975  0.30805468    -0.18800
C317        C  0.97488780  0.24874858  0.32895750    -0.11000
C318        C  0.01147486  0.28265064  0.35704675     0.21600
C319        C  0.01806107  0.33471001  0.36315457    -0.20400
C320        C  0.98850850  0.35234587  0.34207862    -0.11200
C321        C  0.04473198  0.26587024  0.37939265    -0.15400
C322        C  0.03085914  0.21356571  0.38413591    -0.29200
C323        C  0.91992706  0.33487973  0.29033389    -0.03500
C324        C  0.93370717  0.38674489  0.28400408    -0.40000
H325        H  0.91768388  0.23926426  0.28653042     0.12700
H326        H  0.96969484  0.20907948  0.32227772     0.12400
H327        H  0.04601057  0.36177952  0.38447358     0.11800
H328        H  0.99410983  0.39232500  0.34815883     0.12000
H329        H  0.08071675  0.29772416  0.39327685     0.14800
H330        H  0.99236825  0.18190756  0.37302222     0.13600
H331        H  0.88548832  0.30273280  0.27513026     0.11200
H332        H  0.96968368  0.41988302  0.29696588     0.13200
C333        C  0.40470792  0.53706276  0.57989459     0.19300
C334        C  0.37066299  0.52942518  0.54926504    -0.18800
C335        C  0.35249047  0.48375383  0.52524615    -0.11000
C336        C  0.36754746  0.44423304  0.53174726     0.21600
C337        C  0.40170881  0.45215893  0.56233548    -0.20400
C338        C  0.41980229  0.49763244  0.58622271    -0.11200
C339        C  0.34856036  0.39375158  0.50824385    -0.15400
C340        C  0.30884173  0.37545493  0.48214608    -0.29200
C341        C  0.42165668  0.58499189  0.60566144    -0.03500
C342        C  0.46539404  0.60447913  0.62828430    -0.40000
H343        H  0.35817174  0.55899509  0.54384970     0.12700
H344        H  0.32693114  0.48003518  0.50179979     0.12400
H345        H  0.41379531  0.42242258  0.56826010     0.11800
H346        H  0.44436492  0.50066064  0.61014569     0.12000
H347        H  0.36611218  0.36859587  0.51477745     0.14800
H348        H  0.28788311  0.39783377  0.47714279     0.13600
H349        H  0.39736542  0.60483269  0.60597475     0.11200
H350        H  0.49165310  0.58694916  0.62708556     0.13200
C351        C  0.54092500  0.28966047  0.37167229     0.19300
C352        C  0.57903704  0.34497275  0.36938889    -0.18800
C353        C  0.62705706  0.36190401  0.34963816    -0.11000
C354        C  0.63768162  0.32371759  0.33132767     0.21600
C355        C  0.60037130  0.26839403  0.33439687    -0.20400
C356        C  0.55221378  0.25143760  0.35396111    -0.11200
C357        C  0.68561879  0.34026120  0.30714189    -0.15400
C358        C  0.70554322  0.38497080  0.28660387    -0.29200
C359        C  0.48902637  0.27362983  0.39121017    -0.03500
C360        C  0.45823817  0.22410577  0.40535471    -0.40000
H361        H  0.57148500  0.37523725  0.38277074     0.12700
H362        H  0.65560603  0.40488315  0.34856840     0.12400
H363        H  0.60750881  0.23825970  0.32034934     0.11800
H364        H  0.52339354  0.20851499  0.35392955     0.12000
H365        H  0.70052172  0.31196503  0.30261761     0.14800
H366        H  0.68763840  0.41096959  0.28854875     0.13600
H367        H  0.47710960  0.30426910  0.39454044     0.11200
H368        H  0.47306442  0.19552449  0.40385100     0.13200
loop_ 
_geom_bond_atom_site_label_1 
_geom_bond_atom_site_label_2 
_geom_bond_distance 
_geom_bond_site_symmetry_2 
_ccdc_geom_bond_type 
C1            C2   1.414       .  A
C1            C6   1.406       .  A
C1          C360   1.491       .  S
C2            C3   1.407       .  A
C2            H7   1.080       .  S
C3            C4   1.405       .  A
C3           C12   1.488       .  S
C4            C5   1.404       .  A
C4            H8   1.084       .  S
C5            C6   1.401       .  A
C5           C48   1.488       .  S
C6            H9   1.084       .  S
C10          C11   1.413       .  A
C10          C15   1.408       .  A
C10         C340   1.490       .  S
C11          C12   1.404       .  A
C11          H16   1.082       .  S
C12          C13   1.402       .  A
C13          C14   1.405       .  A
C13          H17   1.084       .  S
C14          C15   1.404       .  A
C14          C23   1.488       .  S
C15          H18   1.084       .  S
C19          C20   1.408       .  A
C19          C24   1.414       .  A
C19         C322   1.492       .  S
C20          C21   1.405       .  A
C20          H25   1.083   1_455  S
C21          C22   1.400       .  A
C21          C41   1.490       .  S
C22          C23   1.404       .  A
C22          H26   1.084       .  S
C23          C24   1.409       .  A
C24          H27   1.082       .  S
C28          C29   1.415       .  A
C28          C33   1.408       .  A
C28         C304   1.490       .  S
C29          C30   1.404       .  A
C29          H34   1.081       .  S
C30          C31   1.402       .  A
C30          C39   1.487       .  S
C31          C32   1.405       .  A
C31          H35   1.084   1_565  S
C32          C33   1.402       .  A
C32          C50   1.486       .  S
C33          H36   1.084       .  S
C37          C38   1.413       .  A
C37          C42   1.405   1_565  A
C37         C286   1.489       .  S
C38          C39   1.406   1_655  A
C38          H43   1.082       .  S
C39          C40   1.405   1_565  A
C40          C41   1.405       .  A
C40          H44   1.084       .  S
C41          C42   1.402   1_455  A
C42          H45   1.084       .  S
C46          C47   1.409   1_565  A
C46          C51   1.415       .  A
C46         C268   1.495       .  S
C47          C48   1.404       .  A
C47          H52   1.083       .  S
C48          C49   1.398       .  A
C49          C50   1.402   1_545  A
C49          H53   1.084       .  S
C50          C51   1.410       .  A
C51          H54   1.081       .  S
O55          C70   1.262       .  A
O55         Al63   1.907       .  S
C56         C216   1.476       .  S
C56          O66   1.258       .  A
C56          O57   1.265       .  A
O57         Al59   1.925       .  S
O58          C60   1.259       .  A
O58         Al59   1.886       .  S
Al59         O67   1.899       .  S
Al59         O69   1.913       .  S
Al59         O68   1.783       .  S
C60         C250   1.477       .  S
C60          O73   1.269       .  A
O61          C71   1.258       .  A
O61         Al63   1.899       .  S
O62          C75   1.256       .  A
O62         Al72   1.874       .  S
Al63         O76   1.953       .  S
Al63         O73   1.938       .  S
Al63         O68   1.790       .  S
O64          C71   1.262       .  A
O64         Al72   1.917       .  S
O65          C74   1.263       .  A
O65         Al72   1.919       .  S
O66         Al72   1.894       .  S
O67          C74   1.261       .  A
O68         Al72   1.783       .  S
O69          C70   1.261       .  A
C70         C270   1.480       .  S
C71         C234   1.480       .  S
C74         C342   1.475       .  S
C75         C288   1.476       .  S
C75          O76   1.270       .  A
C77          C78   1.404       .  A
C77          C82   1.415       .  A
C77         C198   1.487   1_556  S
C78          C79   1.398       .  A
C78          H83   1.084       .  S
C79          C80   1.401       .  A
C79         C126   1.484       .  S
C80          C81   1.404       .  A
C80          H84   1.084       .  S
C81          C82   1.412       .  A
C81          C88   1.490       .  S
C82          H85   1.082   1_455  S
C86          C87   1.415   1_565  A
C86          C91   1.410       .  A
C86         C232   1.494       .  S
C87          C88   1.405   1_655  A
C87          H92   1.080       .  S
C88          C89   1.406       .  A
C89          C90   1.405   1_545  A
C89          H93   1.084       .  S
C90          C91   1.404   1_455  A
C90          C99   1.491       .  S
C91          H94   1.084       .  S
C95          C96   1.407       .  A
C95         C100   1.415       .  A
C95         C178   1.493   1_556  S
C96          C97   1.402       .  A
C96         H101   1.084       .  S
C97          C98   1.404       .  A
C97         C106   1.490       .  S
C98          C99   1.404       .  A
C98         H102   1.084   1_565  S
C99         C100   1.409       .  A
C100        H103   1.082       .  S
C104        C105   1.413       .  A
C104        C109   1.406   1_565  A
C104        C252   1.489       .  S
C105        C106   1.409       .  A
C105        H110   1.081       .  S
C106        C107   1.402   1_565  A
C107        C108   1.402       .  A
C107        H111   1.084       .  S
C108        C109   1.400       .  A
C108        C115   1.482       .  S
C109        H112   1.084       .  S
C113        C114   1.413       .  A
C113        C118   1.406       .  A
C113        C162   1.487       .  S
C114        C115   1.405       .  A
C114        H119   1.081       .  S
C115        C116   1.400       .  A
C116        C117   1.399       .  A
C116        H120   1.084       .  S
C117        C118   1.400       .  A
C117        C124   1.480       .  S
C118        H121   1.084       .  S
C122        C123   1.411       .  A
C122        C127   1.407       .  A
C122        C214   1.487       .  S
C123        C124   1.403       .  A
C123        H128   1.081       .  S
C124        C125   1.400       .  A
C125        C126   1.399       .  A
C125        H129   1.084       .  S
C126        C127   1.405       .  A
C127        H130   1.084       .  S
O131        C146   1.259       .  A
O131       Al139   1.912       .  S
C132        C358   1.472       .  S
C132        O142   1.262       .  A
C132        O133   1.261       .  A
O133       Al135   1.911       .  S
O134        C136   1.258       .  A
O134       Al135   1.875       .  S
Al135       O143   1.892       .  S
Al135       O145   1.893       .  S
Al135       O144   1.786       .  S
C136        C306   1.471       .  S
C136        O149   1.268       .  A
O137        C147   1.256       .  A
O137       Al139   1.899       .  S
O138        C151   1.259       .  A
O138       Al148   1.879       .  S
Al139       O152   1.943       .  S
Al139       O149   1.931       .  S
Al139       O144   1.793       .  S
O140        C147   1.259       .  A
O140       Al148   1.911       .  S
O141        C150   1.261       .  A
O141       Al148   1.918       .  S
O142       Al148   1.904       .  S
O143        C150   1.259       .  A
O144       Al148   1.792       .  S
O145        C146   1.255       .  A
C146        C180   1.477       .  S
C147        C324   1.481       .  S
C150        C160   1.471       .  S
C151        C196   1.477       .  S
C151        O152   1.271       .  A
C153        C154   1.403       .  A
C153        C158   1.409       .  A
C153        C161   1.487       .  S
C154        C155   1.397       .  A
C154        H163   1.083       .  S
C155        C156   1.407       .  A
C155        H164   1.082       .  S
C156        C157   1.402       .  A
C156        C159   1.483       .  S
C157        C158   1.398       .  A
C157        H165   1.084       .  S
C158        H166   1.081       .  S
C159        H167   1.087       .  S
C159        C160   1.344       .  D
C160        H168   1.085       .  S
C161        H169   1.084   1_554  S
C161        C162   1.346   1_554  D
C162        H170   1.085   1_556  S
C171        C172   1.403   1_655  A
C171        C176   1.408       .  A
C171        C179   1.492       .  S
C172        C173   1.401       .  A
C172        H181   1.083       .  S
C173        C174   1.410       .  A
C173        H182   1.081       .  S
C174        C175   1.404   1_455  A
C174        C177   1.493       .  S
C175        C176   1.401       .  A
C175        H183   1.083       .  S
C176        H184   1.082       .  S
C177        H185   1.085   1_454  S
C177        C178   1.348       .  D
C178        H186   1.086       .  S
C179        H187   1.087       .  S
C179        C180   1.346       .  D
C180        H188   1.085       .  S
C189        C190   1.403       .  A
C189        C194   1.411   1_655  A
C189        C197   1.494   1_655  S
C190        C191   1.402       .  A
C190        H199   1.083       .  S
C191        C192   1.410       .  A
C191        H200   1.081       .  S
C192        C193   1.401   1_655  A
C192        C195   1.491       .  S
C193        C194   1.399       .  A
C193        H201   1.083       .  S
C194        H202   1.081       .  S
C195        H203   1.087       .  S
C195        C196   1.344       .  D
C196        H204   1.085       .  S
C197        H205   1.086   1_455  S
C197        C198   1.347       .  D
C198        H206   1.085   1_554  S
C207        C208   1.404       .  A
C207        C212   1.408       .  A
C207        C215   1.488       .  S
C208        C209   1.398       .  A
C208        H217   1.084       .  S
C209        C210   1.408       .  A
C209        H218   1.081       .  S
C210        C211   1.403       .  A
C210        C213   1.488       .  S
C211        C212   1.398       .  A
C211        H219   1.084       .  S
C212        H220   1.080       .  S
C213        H221   1.085       .  S
C213        C214   1.348       .  D
C214        H222   1.084       .  S
C215        H223   1.087       .  S
C215        C216   1.346       .  D
C216        H224   1.084       .  S
C225        C226   1.405       .  A
C225        C230   1.409       .  A
C225        C233   1.493       .  S
C226        C227   1.400       .  A
C226        H235   1.083       .  S
C227        C228   1.408       .  A
C227        H236   1.081       .  S
C228        C229   1.404       .  A
C228        C231   1.492       .  S
C229        C230   1.400       .  A
C229        H237   1.084       .  S
C230        H238   1.080       .  S
C231        H239   1.083   1_565  S
C231        C232   1.351       .  D
C232        H240   1.084       .  S
C233        H241   1.087       .  S
C233        C234   1.349       .  D
C234        H242   1.083       .  S
C243        C244   1.403       .  A
C243        C248   1.408       .  A
C243        C251   1.489       .  S
C244        C245   1.400       .  A
C244        H253   1.083       .  S
C245        C246   1.410       .  A
C245        H254   1.082       .  S
C246        C247   1.403       .  A
C246        C249   1.490       .  S
C247        C248   1.399       .  A
C247        H255   1.083       .  S
C248        H256   1.081       .  S
C249        H257   1.087       .  S
C249        C250   1.345       .  D
C250        H258   1.085       .  S
C251        H259   1.084       .  S
C251        C252   1.348       .  D
C252        H260   1.085   1_565  S
C261        C262   1.403       .  A
C261        C266   1.408       .  A
C261        C269   1.492       .  S
C262        C263   1.400       .  A
C262        H271   1.083       .  S
C263        C264   1.410       .  A
C263        H272   1.081       .  S
C264        C265   1.406       .  A
C264        C267   1.498       .  S
C265        C266   1.402       .  A
C265        H273   1.083       .  S
C266        H274   1.082       .  S
C267        H275   1.085       .  S
C267        C268   1.350       .  D
C268        H276   1.084   1_565  S
C269        H277   1.087       .  S
C269        C270   1.347       .  D
C270        H278   1.085       .  S
C279        C280   1.402       .  A
C279        C284   1.410       .  A
C279        C287   1.492       .  S
C280        C281   1.401       .  A
C280        H289   1.083       .  S
C281        C282   1.410       .  A
C281        H290   1.081       .  S
C282        C283   1.402       .  A
C282        C285   1.490       .  S
C283        C284   1.399       .  A
C283        H291   1.083       .  S
C284        H292   1.082       .  S
C285        H293   1.084       .  S
C285        C286   1.347       .  D
C286        H294   1.085       .  S
C287        H295   1.087       .  S
C287        C288   1.343       .  D
C288        H296   1.086       .  S
C297        C298   1.402   1_655  A
C297        C302   1.406       .  A
C297        C305   1.486       .  S
C298        C299   1.401       .  A
C298        H307   1.083       .  S
C299        C300   1.411       .  A
C299        H308   1.080       .  S
C300        C301   1.404   1_455  A
C300        C303   1.491       .  S
C301        C302   1.394       .  A
C301        H309   1.084       .  S
C302        H310   1.082       .  S
C303        H311   1.084       .  S
C303        C304   1.348       .  D
C304        H312   1.083       .  S
C305        H313   1.087       .  S
C305        C306   1.343       .  D
C306        H314   1.086       .  S
C315        C316   1.404       .  A
C315        C320   1.408       .  A
C315        C323   1.491       .  S
C316        C317   1.398       .  A
C316        H325   1.083       .  S
C317        C318   1.408   1_655  A
C317        H326   1.081       .  S
C318        C319   1.406       .  A
C318        C321   1.495       .  S
C319        C320   1.403   1_455  A
C319        H327   1.083       .  S
C320        H328   1.081       .  S
C321        H329   1.085       .  S
C321        C322   1.350       .  D
C322        H330   1.085   1_455  S
C323        H331   1.087       .  S
C323        C324   1.348       .  D
C324        H332   1.084       .  S
C333        C334   1.404       .  A
C333        C338   1.407       .  A
C333        C341   1.490       .  S
C334        C335   1.402       .  A
C334        H343   1.083       .  S
C335        C336   1.410       .  A
C335        H344   1.080       .  S
C336        C337   1.404       .  A
C336        C339   1.491       .  S
C337        C338   1.395       .  A
C337        H345   1.083       .  S
C338        H346   1.081       .  S
C339        H347   1.085       .  S
C339        C340   1.349       .  D
C340        H348   1.083       .  S
C341        H349   1.087       .  S
C341        C342   1.346       .  D
C342        H350   1.084       .  S
C351        C352   1.403       .  A
C351        C356   1.410       .  A
C351        C359   1.489       .  S
C352        C353   1.399       .  A
C352        H361   1.083       .  S
C353        C354   1.407       .  A
C353        H362   1.082       .  S
C354        C355   1.401       .  A
C354        C357   1.485       .  S
C355        C356   1.398       .  A
C355        H363   1.083       .  S
C356        H364   1.081       .  S
C357        H365   1.087       .  S
C357        C358   1.343       .  D
C358        H366   1.086       .  S
C359        H367   1.083       .  S
C359        C360   1.347       .  D
C360        H368   1.084       .  S
