geometry optimzed in LAMMPS
_audit_creation_date              2020-11-30 
_audit_creation_method            'lammps2cif' 
_symmetry_space_group_name_H-M    'P1' 
_symmetry_Int_Tables_number       1 
_symmetry_cell_setting            triclinic 
loop_ 
_symmetry_equiv_pos_as_xyz 
  x,y,z 
_cell_length_a                    27.48218197 
_cell_length_b                    27.492654256111432 
_cell_length_c                    28.829325278723285 
_cell_angle_alpha                 89.93355855688833 
_cell_angle_beta                  90.07732001320365 
_cell_angle_gamma                 90.05828709580177 
loop_ 
_atom_site_label 
_atom_site_type_symbol 
_atom_site_fract_x 
_atom_site_fract_y 
_atom_site_fract_z 
_atom_site_charge 
O1          O  0.41221871  0.96645240  0.99890959    -0.71400
O2          O  0.27419891  0.96278051  0.00038984    -0.71600
O3          O  0.34228448  0.96582917  0.93372840    -0.71500
O4          O  0.34431245  0.96369309  0.06553933    -0.71500
O5          O  0.33972869  0.04262445  0.06636094    -0.71400
O6          O  0.34274450  0.04489353  0.93476661    -0.71400
O7          O  0.27218452  0.04186607  0.99915510    -0.71400
O8          O  0.41047268  0.04543215  0.00206967    -0.71600
V9          V  0.34321632  0.96622662  0.99963720     1.35200
V10         V  0.34133841  0.04218277  0.00057650     1.35200
C11         C  0.43479405  0.00643846  0.00066291     0.77900
C12         C  0.24983953  0.00168019  0.99970573     0.77900
C13         C  0.34251929  0.00572088  0.91188366     0.77800
C14         C  0.34185811  0.00286189  0.08830528     0.77700
O15         O  0.41033543  0.95892710  0.50124633    -0.71400
O16         O  0.27225677  0.95965011  0.49975577    -0.71600
O17         O  0.34226329  0.95823731  0.43472570    -0.71500
O18         O  0.34054243  0.96036961  0.56636011    -0.71500
O19         O  0.34291612  0.03940042  0.56535818    -0.71400
O20         O  0.34048474  0.03728651  0.43355653    -0.71400
O21         O  0.27270450  0.03877475  0.50038750    -0.71400
O22         O  0.41091952  0.03794624  0.49837804    -0.71600
V23         V  0.34133861  0.96084723  0.50053090     1.35200
V24         V  0.34177801  0.03683536  0.49944526     1.35200
C25         C  0.43407180  0.99827106  0.49956941     0.77900
C26         C  0.24914404  0.99931994  0.50007039     0.77900
C27         C  0.34134414  0.99742138  0.41179290     0.77800
C28         C  0.34169457  0.00017928  0.58823282     0.77700
O29         O  0.06460588  0.69207043  0.99993887    -0.71400
O30         O  0.06417723  0.83043096  0.00012041    -0.71600
O31         O  0.06357742  0.76138088  0.93429967    -0.71500
O32         O  0.06476789  0.76092171  0.06581744    -0.71500
O33         O  0.14386609  0.76166313  0.06556369    -0.71400
O34         O  0.14267980  0.76159790  0.93364755    -0.71400
O35         O  0.14332484  0.83059984  0.99947370    -0.71400
O36         O  0.14370414  0.69262495  0.99967583    -0.71600
V37         V  0.06582168  0.76123470  0.00005005     1.35200
V38         V  0.14184952  0.76160435  0.99959490     1.35200
C39         C  0.10431179  0.66889861  0.99979562     0.77900
C40         C  0.10377321  0.85386727  0.99973967     0.77900
C41         C  0.10286761  0.76150272  0.91162338     0.77800
C42         C  0.10441034  0.76115618  0.08805488     0.77700
O43         O  0.06919229  0.69152708  0.49962180    -0.71400
O44         O  0.06620682  0.82958387  0.49951576    -0.71600
O45         O  0.06836537  0.76046307  0.43364380    -0.71500
O46         O  0.06720357  0.76048115  0.56551388    -0.71500
O47         O  0.14629683  0.76176450  0.56600225    -0.71400
O48         O  0.14743477  0.76277547  0.43443163    -0.71400
O49         O  0.14533714  0.83131059  0.50059749    -0.71400
O50         O  0.14828107  0.69312830  0.49983861    -0.71600
V51         V  0.06927420  0.76055280  0.49958257     1.35200
V52         V  0.14528724  0.76221016  0.50021838     1.35200
C53         C  0.10916469  0.66888754  0.49963083     0.77900
C54         C  0.10527786  0.85378511  0.50008629     0.77900
C55         C  0.10812448  0.76165553  0.41167791     0.77800
C56         C  0.10663374  0.76106537  0.58811687     0.77700
O57         O  0.79777366  0.04024550  0.99923976    -0.71400
O58         O  0.93592900  0.03934547  0.99789874    -0.71600
O59         O  0.86599782  0.03798713  0.93282302    -0.71500
O60         O  0.86766850  0.04155657  0.06454694    -0.71500
O61         O  0.86577947  0.96252459  0.06614705    -0.71400
O62         O  0.86706688  0.95894477  0.93444410    -0.71400
O63         O  0.93539042  0.96028263  0.00116314    -0.71400
O64         O  0.79732428  0.96117315  0.99965257    -0.71600
V65         V  0.86685005  0.03825351  0.99864309     1.35200
V66         V  0.86637776  0.96227493  0.00033992     1.35200
C67         C  0.77410380  0.00083589  0.99939523     0.77900
C68         C  0.95897296  0.99966549  0.99954962     0.77900
C69         C  0.86644206  0.99796134  0.91125885     0.77800
C70         C  0.86684062  0.00252916  0.08771741     0.77700
O71         O  0.79723181  0.04061188  0.50038428    -0.71400
O72         O  0.93533176  0.03927175  0.50226962    -0.71600
O73         O  0.86715911  0.04365611  0.43543595    -0.71500
O74         O  0.86526929  0.03619776  0.56702286    -0.71500
O75         O  0.86593932  0.95722148  0.56341434    -0.71400
O76         O  0.86515600  0.96469471  0.43186142    -0.71400
O77         O  0.93456139  0.96033529  0.49712254    -0.71400
O78         O  0.79639320  0.96158613  0.49788447    -0.71600
V79         V  0.86624623  0.03840035  0.50122606     1.35200
V80         V  0.86550938  0.96249869  0.49763010     1.35200
C81         C  0.77337090  0.00132102  0.49904493     0.77900
C82         C  0.95827704  0.99959226  0.49974191     0.77900
C83         C  0.86632614  0.00530036  0.41131617     0.77800
C84         C  0.86547817  0.99555901  0.58755940     0.77700
O85         O  0.17344654  0.00018823  0.03737953    -0.71400
O86         O  0.03527902  0.99864970  0.03732441    -0.71600
O87         O  0.10480436  0.93025385  0.03738328    -0.71500
O88         O  0.10361137  0.06838983  0.03732934    -0.71500
O89         O  0.10456430  0.06848159  0.96186681    -0.71400
O90         O  0.10378941  0.93031407  0.96192804    -0.71400
O91         O  0.03522270  0.99981606  0.96185804    -0.71400
O92         O  0.17340075  0.99934249  0.96192379    -0.71600
V93         V  0.10432515  0.99934029  0.03588542     1.35200
V94         V  0.10427655  0.99943208  0.96336075     1.35200
C95         C  0.19677624  0.00024591  0.99966246     0.77900
C96         C  0.01194012  0.99933029  0.99957912     0.77900
C97         C  0.10401188  0.90693404  0.99967434     0.77800
C98         C  0.10388342  0.09175338  0.99959171     0.77700
O99         O  0.10456065  0.93016068  0.46228219    -0.71400
O100        O  0.10289771  0.06833834  0.46215189    -0.71600
O101        O  0.17277707  0.00008090  0.46227128    -0.71500
O102        O  0.03461690  0.99836068  0.46211471    -0.71500
O103        O  0.03462221  0.99975279  0.53756916    -0.71400
O104        O  0.17279311  0.99889495  0.53773126    -0.71400
O105        O  0.10408210  0.06830287  0.53761032    -0.71400
O106        O  0.10336197  0.93016068  0.53773476    -0.71600
V107        V  0.10369701  0.99923954  0.46366710     1.35200
V108        V  0.10370231  0.99925621  0.53619008     1.35200
C109        C  0.10423738  0.90682000  0.50003792     0.77900
C110        C  0.10339844  0.09165384  0.49987938     0.77900
C111        C  0.19611940  0.99950762  0.50002587     0.77800
C112        C  0.01128944  0.99914994  0.49981268     0.77700
O113        O  0.14095530  0.30665169  0.00043766    -0.71400
O114        O  0.14255340  0.16857158  0.99916426    -0.71600
O115        O  0.14139463  0.23836669  0.93392229    -0.71500
O116        O  0.14202584  0.23690809  0.06561574    -0.71500
O117        O  0.06292373  0.23633055  0.06600247    -0.71400
O118        O  0.06230753  0.23672069  0.93423425    -0.71400
O119        O  0.06340565  0.16754142  0.00009203    -0.71400
O120        O  0.06185749  0.30565447  0.00014760    -0.71600
V121        V  0.14018305  0.23759651  0.99979623     1.35200
V122        V  0.06415588  0.23660379  0.00010041     1.35200
C123        C  0.10115782  0.32959386  0.00037598     0.77900
C124        C  0.10326183  0.14473782  0.99958916     0.77900
C125        C  0.10174095  0.23767171  0.91171465     0.77800
C126        C  0.10261311  0.23640011  0.08816671     0.77700
O127        O  0.14303093  0.30617056  0.49895790    -0.71400
O128        O  0.14289291  0.16805973  0.49907165    -0.71600
O129        O  0.14119280  0.23715265  0.43320305    -0.68500
O130        O  0.14453902  0.23716708  0.56496518    -0.71500
O131        O  0.06545332  0.23719333  0.56652015    -0.71400
O132        O  0.06210767  0.23677255  0.43489011    -0.71400
O133        O  0.06376198  0.16796505  0.50090096    -0.71400
O134        O  0.06394738  0.30614045  0.50046599    -0.71600
V135        V  0.14137370  0.23712107  0.49908773     1.35200
V136        V  0.06536070  0.23704708  0.50067935     1.35200
C137        C  0.10353473  0.32960439  0.49961198     0.77900
C138        C  0.10333374  0.14467773  0.49992310     0.77900
C139        C  0.10109263  0.23680679  0.41170159     0.77800
C140        C  0.10548828  0.23723941  0.58810051     0.77700
C141        C  0.08119411  0.23678456  0.70721637     0.30200
C142        C  0.05201840  0.23584996  0.74706053    -0.36200
C143        C  0.07683311  0.23691121  0.78953043     0.16100
C144        C  0.12693583  0.23876099  0.79265198     0.22000
C145        C  0.15614973  0.23968260  0.75276679    -0.34300
C146        C  0.13130821  0.23859358  0.71024744     0.16000
O147        O  0.06557965  0.23607714  0.66399862    -0.26300
C148        C  0.10618244  0.23738899  0.63898492     0.05800
C149        C  0.14823213  0.23897265  0.66586281    -0.31200
O150        O  0.14240492  0.23935506  0.83596408    -0.23000
C151        C  0.10166283  0.23788023  0.86082147    -0.03000
C152        C  0.05976009  0.23633413  0.83379500    -0.17500
H153        H  0.01270921  0.23437116  0.74507643     0.20500
H154        H  0.19546105  0.24109290  0.75475148     0.18900
H155        H  0.18568430  0.24027661  0.65434041     0.18800
H156        H  0.02225875  0.23487504  0.84515942     0.14700
C157        C  0.07822322  0.23325184  0.20736524     0.30200
C158        C  0.04944101  0.23057241  0.24746593    -0.36200
C159        C  0.07452859  0.23323197  0.28979613     0.16100
C160        C  0.12447635  0.23801965  0.29246096     0.22000
C161        C  0.15321651  0.24058590  0.25241496    -0.34300
C162        C  0.12816119  0.23800351  0.21014728     0.16000
O163        O  0.06247119  0.23201174  0.16414688    -0.26300
C164        C  0.10289526  0.23591677  0.13904509     0.05800
C165        C  0.14483436  0.23968801  0.16579882    -0.31200
O166        O  0.14037399  0.23987701  0.33555169    -0.23000
C167        C  0.10010964  0.23636855  0.36084870    -0.03000
C168        C  0.05801117  0.23214601  0.33429391    -0.17500
H169        H  0.01025983  0.22688575  0.24577970     0.20500
H170        H  0.19237961  0.24445599  0.25410150     0.18900
H171        H  0.18210018  0.24342818  0.15419890     0.18800
H172        H  0.02078895  0.22870030  0.34610045     0.14700
C173        C  0.86265058  0.01762527  0.70688410     0.30200
C174        C  0.86010662  0.04640523  0.74680883    -0.36200
C175        C  0.86287417  0.02155619  0.78908514     0.16100
C176        C  0.86766612  0.97167987  0.79213839     0.22000
C177        C  0.87014822  0.94272057  0.75203181    -0.34300
C178        C  0.86743135  0.96770356  0.70953824     0.16000
O179        O  0.86127190  0.03367183  0.66388776    -0.26300
C180        C  0.86510847  0.99362958  0.63842377     0.05800
C181        C  0.86899207  0.95136741  0.66487336    -0.31200
O182        O  0.86956684  0.95636108  0.83555548    -0.23000
C183        C  0.86605280  0.99709226  0.86033410    -0.03000
C184        C  0.86183632  0.03865115  0.83322166    -0.17500
H185        H  0.85642792  0.08555783  0.74501645     0.20500
H186        H  0.87403994  0.90358839  0.75382249     0.18900
H187        H  0.87275702  0.91425270  0.65291965     0.18800
H188        H  0.85841029  0.07604232  0.84447552     0.14700
C189        C  0.86756746  0.02887492  0.20678445     0.30200
C190        C  0.86760272  0.05801208  0.24683061    -0.36200
C191        C  0.86745198  0.03296219  0.28934451     0.16100
C192        C  0.86731808  0.98281327  0.29207872     0.22000
C193        C  0.86738512  0.95383103  0.25220663    -0.34300
C194        C  0.86747035  0.97876652  0.20989565     0.16000
O195        O  0.86741021  0.04425957  0.16336664    -0.26300
C196        C  0.86717121  0.00335712  0.13862926     0.05800
C197        C  0.86722452  0.96159758  0.16577195    -0.31200
O198        O  0.86691566  0.96681025  0.33509671    -0.23000
C199        C  0.86680781  0.00710463  0.36047284    -0.03000
C200        C  0.86716700  0.04948755  0.33396062    -0.17500
H201        H  0.86760097  0.09733238  0.24497817     0.20500
H202        H  0.86721697  0.91450925  0.25406138     0.18900
H203        H  0.86702981  0.92403685  0.15454909     0.18800
H204        H  0.86709652  0.08682200  0.34583838     0.14700
C205        C  0.12957164  0.45434583  0.49864349     0.30200
C206        C  0.15904387  0.49607347  0.49817302    -0.36200
C207        C  0.13443712  0.54074817  0.49865098     0.16100
C208        C  0.08431689  0.54407698  0.49945135     0.22000
C209        C  0.05489747  0.50240679  0.49988180    -0.34300
C210        C  0.07946674  0.45780072  0.49947745     0.16000
O211        O  0.14476154  0.40886428  0.49854470    -0.26300
C212        C  0.10382866  0.38296495  0.49934688     0.05800
C213        C  0.06209372  0.41146492  0.49993842    -0.31200
O214        O  0.06892625  0.58942588  0.49987460    -0.23000
C215        C  0.10966903  0.61554218  0.49937973    -0.03000
C216        C  0.15160475  0.58725086  0.49860557    -0.17500
H217        H  0.19836084  0.49385857  0.49758818     0.20500
H218        H  0.01558310  0.50462196  0.50058695     0.18900
H219        H  0.02449954  0.39970095  0.50067250     0.18800
H220        H  0.18913266  0.59923747  0.49810473     0.14700
C221        C  0.07974111  0.54390759  0.99944651     0.30200
C222        C  0.05068478  0.50195506  0.99899524    -0.36200
C223        C  0.07566915  0.45754258  0.99972787     0.16100
C224        C  0.12580668  0.45455238  0.00080277     0.22000
C225        C  0.15488304  0.49650909  0.00123393    -0.34300
C226        C  0.12988327  0.54093148  0.00049934     0.16000
O227        O  0.06403042  0.58919680  0.99902869    -0.26300
C228        C  0.10463972  0.61553885  0.99979341     0.05800
C229        C  0.14672039  0.58748342  0.00069784    -0.31200
O230        O  0.14146074  0.40924662  0.00124813    -0.23000
C231        C  0.10080971  0.38293913  0.00046987    -0.03000
C232        C  0.05877298  0.41101377  0.99952100    -0.17500
H233        H  0.01135371  0.50381466  0.99815217     0.20500
H234        H  0.19421669  0.49464743  0.00207514     0.18900
H235        H  0.18418064  0.59967384  0.00148931     0.18800
H236        H  0.02130544  0.39885634  0.99868870     0.14700
C237        C  0.12722910  0.76175254  0.79253170     0.30200
C238        C  0.15631469  0.76198534  0.75264725    -0.36200
C239        C  0.13137443  0.76155649  0.71024160     0.16100
C240        C  0.08123457  0.76095693  0.70716562     0.22000
C241        C  0.05209949  0.76077352  0.74709781    -0.34300
C242        C  0.07707592  0.76119021  0.78955940     0.16000
O243        O  0.14295707  0.76195450  0.83572888    -0.26300
C244        C  0.10237048  0.76153160  0.86076328     0.05800
C245        C  0.06025162  0.76106217  0.83393638    -0.31200
O246        O  0.06569345  0.76062967  0.66385688    -0.23000
C247        C  0.10645551  0.76103380  0.63899714    -0.03000
C248        C  0.14839057  0.76161599  0.66600030    -0.17500
H249        H  0.19565203  0.76243360  0.75454841     0.20500
H250        H  0.01276154  0.76031176  0.74519797     0.18900
H251        H  0.02279270  0.76062641  0.84550041     0.18800
H252        H  0.18591180  0.76206418  0.65462212     0.14700
C253        C  0.12952622  0.76338041  0.20721234     0.30200
C254        C  0.15845666  0.76672661  0.24721912    -0.36200
C255        C  0.13362822  0.76406887  0.28962105     0.16100
C256        C  0.08377832  0.75853382  0.29249081     0.22000
C257        C  0.05487563  0.75516036  0.25251424    -0.34300
C258        C  0.07967998  0.75787364  0.21014686     0.16000
O259        O  0.14501779  0.76512387  0.16395498    -0.26300
C260        C  0.10451824  0.76082637  0.13895006     0.05800
C261        C  0.06279220  0.75619561  0.16582573    -0.31200
O262        O  0.06815610  0.75705559  0.33567945    -0.23000
C263        C  0.10852736  0.76160977  0.36079295    -0.03000
C264        C  0.15037324  0.76608886  0.33402605    -0.17500
H265        H  0.19755068  0.77115247  0.24541522     0.20500
H266        H  0.01576886  0.75084709  0.25431829     0.18900
H267        H  0.02549359  0.75217865  0.15431549     0.18800
H268        H  0.18761147  0.77030005  0.34564768     0.14700
C269        C  0.64839578  0.97676133  0.49835639     0.30200
C270        C  0.60642509  0.94771504  0.49819838    -0.36200
C271        C  0.56201336  0.97273393  0.49825881     0.16100
C272        C  0.55904944  0.02286848  0.49833132     0.22000
C273        C  0.60102155  0.05191006  0.49845313    -0.34300
C274        C  0.64543251  0.02689438  0.49853688     0.16000
O275        O  0.69369562  0.96106559  0.49850495    -0.26300
C276        C  0.72002817  0.00168219  0.49883102     0.05800
C277        C  0.69198277  0.04374497  0.49890269    -0.31200
O278        O  0.51375038  0.03857316  0.49866444    -0.23000
C279        C  0.48741672  0.99795967  0.49891797    -0.03000
C280        C  0.51546358  0.95589271  0.49862490    -0.17500
H281        H  0.60826923  0.90839282  0.49820122     0.20500
H282        H  0.59917854  0.09123036  0.49865288     0.18900
H283        H  0.70417379  0.08119538  0.49914945     0.18800
H284        H  0.50327150  0.91844103  0.49880694     0.14700
C285        C  0.55959113  0.98166731  0.00048621     0.30200
C286        C  0.60120984  0.95225845  0.99989195    -0.36200
C287        C  0.64586636  0.97684065  0.99962430     0.16100
C288        C  0.64942189  0.02693606  0.99990306     0.22000
C289        C  0.60774463  0.05638961  0.00053502    -0.34300
C290        C  0.56301475  0.03177463  0.00085208     0.16000
O291        O  0.51420027  0.96627792  0.00053153    -0.26300
C292        C  0.48815413  0.00700734  0.00096565     0.05800
C293        C  0.51653032  0.04893478  0.00126377    -0.31200
O294        O  0.69494419  0.04213553  0.99970869    -0.23000
C295        C  0.72075255  0.00121149  0.99934629    -0.03000
C296        C  0.69216900  0.95948009  0.99923293    -0.17500
H297        H  0.59892079  0.91295581  0.99962671     0.20500
H298        H  0.61003536  0.09569073  0.00076889     0.18900
H299        H  0.50461158  0.08644686  0.00146070     0.18800
H300        H  0.70386398  0.92189412  0.99904381     0.14700
C301        C  0.34277477  0.02645849  0.70719754     0.30200
C302        C  0.34444615  0.05580971  0.74699405    -0.36200
C303        C  0.34323419  0.03114714  0.78962874     0.16100
C304        C  0.34056972  0.98110009  0.79284259     0.22000
C305        C  0.33879777  0.95182226  0.75311890    -0.34300
C306        C  0.34003881  0.97643432  0.71056925     0.16000
O307        O  0.34368534  0.04165330  0.66377111    -0.26300
C308        C  0.34154219  0.00077318  0.63914798     0.05800
C309        C  0.33918498  0.95912269  0.66642929    -0.31200
O310        O  0.34005419  0.96561695  0.83610198    -0.23000
C311        C  0.34235649  0.00623137  0.86099234    -0.03000
C312        C  0.34437764  0.04816950  0.83397637    -0.17500
H313        H  0.34662878  0.09505846  0.74486861     0.20500
H314        H  0.33671431  0.91256780  0.75524585     0.18900
H315        H  0.33719629  0.92158316  0.65529401     0.18800
H316        H  0.34645666  0.08561115  0.84538992     0.14700
C317        C  0.34653359  0.97719722  0.20728644     0.30200
C318        C  0.35312901  0.94862302  0.24717803    -0.36200
C319        C  0.34697213  0.97260365  0.28969730     0.16100
C320        C  0.33533098  0.02134502  0.29272915     0.22000
C321        C  0.32862991  0.04983390  0.25289903    -0.34300
C322        C  0.33479175  0.02589753  0.21045471     0.16000
O323        O  0.35049663  0.96241037  0.16394004    -0.26300
C324        C  0.34137382  0.00225846  0.13917279     0.05800
C325        C  0.33139335  0.04281670  0.16625475    -0.31200
O326        O  0.33189416  0.03649357  0.33593492    -0.23000
C327        C  0.34116841  0.99690865  0.36093845    -0.03000
C328        C  0.35073300  0.95601559  0.33408344    -0.17500
H329        H  0.36245571  0.91044522  0.24520626     0.20500
H330        H  0.31946597  0.08805180  0.25487194     0.18900
H331        H  0.32274476  0.07936312  0.15494880     0.18800
H332        H  0.35957660  0.91960103  0.34563298     0.14700
loop_ 
_geom_bond_atom_site_label_1 
_geom_bond_atom_site_label_2 
_geom_bond_distance 
_geom_bond_site_symmetry_2 
_ccdc_geom_bond_type 
O1            V9   1.896       .  S
O1           C11   1.263   1_566  A
O2            V9   1.899   1_554  S
O2           C12   1.262   1_564  A
O3            V9   1.900       .  S
O3           C13   1.264   1_565  A
O4            V9   1.901   1_554  S
O4           C14   1.264   1_565  A
O5           V10   1.897       .  S
O5           C14   1.264       .  A
O6           V10   1.899   1_556  S
O6           C13   1.264       .  A
O7           V10   1.901   1_556  S
O7           C12   1.264       .  A
O8           V10   1.902       .  S
O8           C11   1.265       .  A
V9           V10   2.089   1_566  T
C11         C292   1.467       .  S
C12          C95   1.459       .  S
C13         C311   1.467       .  S
C14         C324   1.467       .  S
O15          V23   1.897       .  S
O15          C25   1.263       .  A
O16          V23   1.899       .  S
O16          C26   1.263       .  A
O17          V23   1.899       .  S
O17          C27   1.264       .  A
O18          V23   1.898       .  S
O18          C28   1.264   1_565  A
O19          V24   1.902       .  S
O19          C28   1.264       .  A
O20          V24   1.900       .  S
O20          C27   1.264   1_545  A
O21          V24   1.899       .  S
O21          C26   1.263   1_545  A
O22          V24   1.901       .  S
O22          C25   1.264   1_545  A
V23          V24   2.089   1_565  T
C25         C279   1.466       .  S
C26         C111   1.457       .  S
C27         C327   1.466       .  S
C28         C308   1.468       .  S
O29          V37   1.902   1_556  S
O29          C39   1.264       .  A
O30          V37   1.903       .  S
O30          C40   1.264   1_554  A
O31          V37   1.896   1_556  S
O31          C41   1.263       .  A
O32          V37   1.896       .  S
O32          C42   1.263       .  A
O33          V38   1.903   1_554  S
O33          C42   1.264       .  A
O34          V38   1.901       .  S
O34          C41   1.264       .  A
O35          V38   1.897       .  S
O35          C40   1.262       .  A
O36          V38   1.897       .  S
O36          C39   1.263       .  A
V37          V38   2.089   1_554  T
C39         C228   1.467       .  S
C40          C97   1.459       .  S
C41         C244   1.466       .  S
C42         C260   1.467       .  S
O43          V51   1.898       .  S
O43          C53   1.263       .  A
O44          V51   1.900       .  S
O44          C54   1.263       .  A
O45          V51   1.901       .  S
O45          C55   1.264       .  A
O46          V51   1.902       .  S
O46          C56   1.264       .  A
O47          V52   1.897       .  S
O47          C56   1.264       .  A
O48          V52   1.898       .  S
O48          C55   1.264       .  A
O49          V52   1.900       .  S
O49          C54   1.263       .  A
O50          V52   1.901       .  S
O50          C53   1.264       .  A
V51          V52   2.090       .  T
C53         C215   1.467       .  S
C54         C109   1.458       .  S
C55         C263   1.467       .  S
C56         C247   1.467       .  S
O57          V65   1.899       .  S
O57          C67   1.263       .  A
O58          V65   1.899       .  S
O58          C68   1.263   1_545  A
O59          V65   1.898       .  S
O59          C69   1.265   1_545  A
O60          V65   1.902   1_554  S
O60          C70   1.263       .  A
O61          V66   1.897       .  S
O61          C70   1.264   1_565  A
O62          V66   1.902   1_556  S
O62          C69   1.263       .  A
O63          V66   1.898       .  S
O63          C68   1.262   1_554  A
O64          V66   1.898   1_556  S
O64          C67   1.264   1_565  A
V65          V66   2.089   1_546  T
C67         C295   1.466       .  S
C68          C96   1.456   1_655  S
C69         C183   1.468       .  S
C70         C196   1.468       .  S
O71          V79   1.898       .  S
O71          C81   1.264       .  A
O72          V79   1.899       .  S
O72          C82   1.263   1_545  A
O73          V79   1.902       .  S
O73          C83   1.264       .  A
O74          V79   1.898       .  S
O74          C84   1.264   1_545  A
O75          V80   1.902       .  S
O75          C84   1.264       .  A
O76          V80   1.897       .  S
O76          C83   1.264   1_565  A
O77          V80   1.899       .  S
O77          C82   1.263       .  A
O78          V80   1.900       .  S
O78          C81   1.263   1_565  A
V79          V80   2.090   1_545  T
C81         C276   1.466       .  S
C82         C112   1.457   1_655  S
C83         C199   1.467       .  S
C84         C180   1.467       .  S
O85          V93   1.900   1_545  S
O85          C95   1.263   1_554  A
O86          V93   1.898       .  S
O86          C96   1.263   1_554  A
O87          V93   1.900       .  S
O87          C97   1.263   1_554  A
O88          V93   1.899   1_545  S
O88          C98   1.263   1_554  A
O89          V94   1.899   1_545  S
O89          C98   1.263       .  A
O90          V94   1.901       .  S
O90          C97   1.263       .  A
O91          V94   1.898       .  S
O91          C96   1.263       .  A
O92          V94   1.900       .  S
O92          C95   1.263   1_565  A
V93          V94   2.091   1_554  T
C98         C124   1.457       .  S
O99         V107   1.900       .  S
O99         C109   1.263       .  A
O100        V107   1.900   1_545  S
O100        C110   1.263       .  A
O101        V107   1.899   1_545  S
O101        C111   1.263   1_545  A
O102        V107   1.899       .  S
O102        C112   1.263       .  A
O103        V108   1.899       .  S
O103        C112   1.263       .  A
O104        V108   1.899       .  S
O104        C111   1.263       .  A
O105        V108   1.899   1_545  S
O105        C110   1.263       .  A
O106        V108   1.900       .  S
O106        C109   1.263       .  A
V107        V108   2.091       .  T
C110        C138   1.458       .  S
O113        V121   1.899   1_554  S
O113        C123   1.263       .  A
O114        V121   1.899       .  S
O114        C124   1.263       .  A
O115        V121   1.900       .  S
O115        C125   1.263       .  A
O116        V121   1.898   1_554  S
O116        C126   1.264       .  A
O117        V122   1.900       .  S
O117        C126   1.263       .  A
O118        V122   1.899   1_556  S
O118        C125   1.264       .  A
O119        V122   1.899       .  S
O119        C124   1.263   1_554  A
O120        V122   1.900       .  S
O120        C123   1.264       .  A
V121        V122   2.090   1_556  T
C123        C231   1.467       .  S
C125        C151   1.467       .  S
C126        C164   1.467       .  S
O127        V135   1.899       .  S
O127        C137   1.263       .  A
O128        V135   1.899       .  S
O128        C138   1.263       .  A
O129        V135   1.899       .  S
O129        C139   1.264       .  A
O130        V135   1.901       .  S
O130        C140   1.264       .  A
O131        V136   1.898       .  S
O131        C140   1.263       .  A
O132        V136   1.899       .  S
O132        C139   1.264       .  A
O133        V136   1.900       .  S
O133        C138   1.263       .  A
O134        V136   1.900       .  S
O134        C137   1.265       .  A
V135        V136   2.090       .  T
C137        C212   1.467       .  S
C139        C167   1.466       .  S
C140        C148   1.467       .  S
C141        C146   1.381       .  A
C141        C142   1.402       .  A
C141        O147   1.317       .  A
C142        C143   1.401       .  A
C142        H153   1.082       .  S
C143        C152   1.360       .  A
C143        C144   1.381       .  A
C144        C145   1.403       .  A
C144        O150   1.319       .  A
C145        C146   1.403       .  A
C145        H154   1.082       .  S
C146        C149   1.362       .  A
O147        C148   1.330       .  A
C148        C149   1.391       .  A
C149        H155   1.083       .  S
O150        C151   1.331       .  A
C151        C152   1.390       .  A
C152        H156   1.083       .  S
C157        C162   1.381       .  A
C157        C158   1.403       .  A
C157        O163   1.319       .  A
C158        C159   1.403       .  A
C158        H169   1.082       .  S
C159        C168   1.362       .  A
C159        C160   1.381       .  A
C160        C161   1.401       .  A
C160        O166   1.317       .  A
C161        C162   1.401       .  A
C161        H170   1.082       .  S
C162        C165   1.359       .  A
O163        C164   1.331       .  A
C164        C165   1.390       .  A
C165        H171   1.083       .  S
O166        C167   1.329       .  A
C167        C168   1.391       .  A
C168        H172   1.083       .  S
C173        C178   1.381   1_545  A
C173        C174   1.399       .  A
C173        O179   1.316       .  A
C174        C175   1.399       .  A
C174        H185   1.082       .  S
C175        C184   1.357       .  A
C175        C176   1.380   1_545  A
C176        C177   1.406       .  A
C176        O182   1.321       .  A
C177        C178   1.406       .  A
C177        H186   1.082       .  S
C178        C181   1.365       .  A
O179        C180   1.328   1_545  A
C180        C181   1.393       .  A
C181        H187   1.082       .  S
O182        C183   1.333       .  A
C183        C184   1.388   1_565  A
C184        H188   1.083       .  S
C189        C194   1.380   1_545  A
C189        C190   1.406       .  A
C189        O195   1.321       .  A
C190        C191   1.405       .  A
C190        H201   1.082       .  S
C191        C200   1.365       .  A
C191        C192   1.381   1_545  A
C192        C193   1.399       .  A
C192        O198   1.315       .  A
C193        C194   1.399       .  A
C193        H202   1.082       .  S
C194        C197   1.357       .  A
O195        C196   1.332       .  A
C196        C197   1.389   1_545  A
C197        H203   1.083       .  S
O198        C199   1.328   1_565  A
C199        C200   1.393       .  A
C200        H204   1.082       .  S
C205        C210   1.381       .  A
C205        C206   1.404       .  A
C205        O211   1.319       .  A
C206        C207   1.403       .  A
C206        H217   1.082       .  S
C207        C216   1.362       .  A
C207        C208   1.381       .  A
C208        C209   1.402       .  A
C208        O214   1.317       .  A
C209        C210   1.401       .  A
C209        H218   1.082       .  S
C210        C213   1.360       .  A
O211        C212   1.331       .  A
C212        C213   1.390       .  A
C213        H219   1.083       .  S
O214        C215   1.330       .  A
C215        C216   1.391       .  A
C216        H220   1.083       .  S
C221        C226   1.381   1_556  A
C221        C222   1.402       .  A
C221        O227   1.318       .  A
C222        C223   1.402       .  A
C222        H233   1.082       .  S
C223        C232   1.360       .  A
C223        C224   1.381   1_556  A
C224        C225   1.403       .  A
C224        O230   1.318       .  A
C225        C226   1.402       .  A
C225        H234   1.082       .  S
C226        C229   1.360       .  A
O227        C228   1.330       .  A
C228        C229   1.391   1_556  A
C229        H235   1.083       .  S
O230        C231   1.330       .  A
C231        C232   1.390   1_554  A
C232        H236   1.082       .  S
C237        C242   1.381       .  A
C237        C238   1.401       .  A
C237        O243   1.318       .  A
C238        C239   1.401       .  A
C238        H249   1.082       .  S
C239        C248   1.359       .  A
C239        C240   1.381       .  A
C240        C241   1.403       .  A
C240        O246   1.319       .  A
C241        C242   1.403       .  A
C241        H250   1.082       .  S
C242        C245   1.361       .  A
O243        C244   1.329       .  A
C244        C245   1.391       .  A
C245        H251   1.083       .  S
O246        C247   1.331       .  A
C247        C248   1.390       .  A
C248        H252   1.083       .  S
C253        C258   1.381       .  A
C253        C254   1.403       .  A
C253        O259   1.319       .  A
C254        C255   1.403       .  A
C254        H265   1.082       .  S
C255        C264   1.361       .  A
C255        C256   1.381       .  A
C256        C257   1.402       .  A
C256        O262   1.318       .  A
C257        C258   1.401       .  A
C257        H266   1.082       .  S
C258        C261   1.360       .  A
O259        C260   1.330       .  A
C260        C261   1.390       .  A
C261        H267   1.083       .  S
O262        C263   1.330       .  A
C263        C264   1.391       .  A
C264        H268   1.083       .  S
C269        C274   1.381   1_565  A
C269        C270   1.402       .  A
C269        O275   1.318       .  A
C270        C271   1.402       .  A
C270        H281   1.082       .  S
C271        C280   1.360       .  A
C271        C272   1.381   1_565  A
C272        C273   1.402       .  A
C272        O278   1.318       .  A
C273        C274   1.402       .  A
C273        H282   1.082       .  S
C274        C277   1.360       .  A
O275        C276   1.330   1_565  A
C276        C277   1.390       .  A
C277        H283   1.082       .  S
O278        C279   1.330   1_545  A
C279        C280   1.391       .  A
C280        H284   1.082       .  S
C285        C290   1.381   1_565  A
C285        C286   1.401   1_554  A
C285        O291   1.317       .  A
C286        C287   1.400       .  A
C286        H297   1.082       .  S
C287        C296   1.360       .  A
C287        C288   1.381   1_565  A
C288        C289   1.404   1_556  A
C288        O294   1.319       .  A
C289        C290   1.403       .  A
C289        H298   1.082       .  S
C290        C293   1.362       .  A
O291        C292   1.330   1_565  A
C292        C293   1.391       .  A
C293        H299   1.082       .  S
O294        C295   1.331       .  A
C295        C296   1.390   1_545  A
C296        H300   1.083       .  S
C301        C306   1.381   1_545  A
C301        C302   1.404       .  A
C301        O307   1.320       .  A
C302        C303   1.403       .  A
C302        H313   1.082       .  S
C303        C312   1.362       .  A
C303        C304   1.381   1_545  A
C304        C305   1.401       .  A
C304        O310   1.317       .  A
C305        C306   1.401       .  A
C305        H314   1.082       .  S
C306        C309   1.359       .  A
O307        C308   1.331       .  A
C308        C309   1.390   1_545  A
C309        H315   1.082       .  S
O310        C311   1.329   1_565  A
C311        C312   1.392       .  A
C312        H316   1.082       .  S
C317        C322   1.381   1_565  A
C317        C318   1.404       .  A
C317        O323   1.319       .  A
C318        C319   1.403       .  A
C318        H329   1.082       .  S
C319        C328   1.362       .  A
C319        C320   1.381   1_565  A
C320        C321   1.401       .  A
C320        O326   1.317       .  A
C321        C322   1.401       .  A
C321        H330   1.082       .  S
C322        C325   1.359       .  A
O323        C324   1.331   1_565  A
C324        C325   1.390       .  A
C325        H331   1.082       .  S
O326        C327   1.329   1_545  A
C327        C328   1.391       .  A
C328        H332   1.082       .  S
