geometry optimzed in LAMMPS
_audit_creation_date              2020-11-30 
_audit_creation_method            'lammps2cif' 
_symmetry_space_group_name_H-M    'P1' 
_symmetry_Int_Tables_number       1 
_symmetry_cell_setting            triclinic 
loop_ 
_symmetry_equiv_pos_as_xyz 
  x,y,z 
_cell_length_a                    24.68141103 
_cell_length_b                    38.48024396616812 
_cell_length_c                    23.96789167332367 
_cell_angle_alpha                 89.9929142106615 
_cell_angle_beta                  90.00010350961557 
_cell_angle_gamma                 90.02367901397345 
loop_ 
_atom_site_label 
_atom_site_type_symbol 
_atom_site_fract_x 
_atom_site_fract_y 
_atom_site_fract_z 
_atom_site_charge 
N1          N  0.50742132  0.79952535  0.88720824    -0.25100
N2          N  0.50738316  0.76960977  0.91446363    -0.32900
C3          C  0.50754769  0.74336343  0.87725837     0.03300
C4          C  0.50769282  0.75761701  0.82438835     0.09300
C5          C  0.50760395  0.79313700  0.83205083    -0.03800
H6          H  0.50757395  0.71604532  0.88798273     0.10000
H7          H  0.50769156  0.81292207  0.79996205     0.11200
Cu8        Cu  0.50722624  0.76599447  0.00098373     0.44200
Cu9        Cu  0.50741805  0.84785908  0.92565366     0.42000
Cu10       Cu  0.50746271  0.84787431  0.07635867     0.43900
N11         N  0.50741086  0.76961114  0.08750213    -0.32400
N12         N  0.50746770  0.79952045  0.11476648    -0.26700
C13         C  0.50765862  0.79311618  0.16992141    -0.02800
C14         C  0.50773313  0.75759451  0.17757124     0.09400
C15         C  0.50757090  0.74335512  0.12469920     0.03200
H16         H  0.50775659  0.81289186  0.20201730     0.10900
H17         H  0.50757846  0.71603984  0.11396710     0.09900
N18         N  0.50790426  0.89286882  0.02858778    -0.33900
N19         N  0.50788693  0.89285800  0.97338778    -0.26100
C20         C  0.50806212  0.92592003  0.95505118    -0.01300
C21         C  0.50820006  0.94757474  0.00094390     0.07300
C22         C  0.50809077  0.92594058  0.04687428     0.05400
H23         H  0.50793382  0.93355077  0.91159977     0.10500
H24         H  0.50798929  0.93359138  0.09031380     0.09300
N25         N  0.50399545  0.26986583  0.11434614    -0.25100
N26         N  0.50348210  0.29977623  0.08708082    -0.32900
C27         C  0.50286824  0.32602442  0.12427773     0.03300
C28         C  0.50300927  0.31177927  0.17715368     0.09300
C29         C  0.50372949  0.27626059  0.16950261    -0.03800
H30         H  0.50234266  0.35333880  0.11354365     0.10000
H31         H  0.50400596  0.25648077  0.20159849     0.11200
Cu32       Cu  0.50353125  0.30338685  0.00055628     0.44200
Cu33       Cu  0.50480768  0.22152961  0.07590824     0.42000
Cu34       Cu  0.50474125  0.22151699  0.92519096     0.43900
N35         N  0.50344098  0.29977231  0.91403340    -0.32400
N36         N  0.50392640  0.26986359  0.88677289    -0.26700
C37         C  0.50364689  0.27626248  0.83161670    -0.02800
C38         C  0.50294741  0.31178060  0.82395950     0.09400
C39         C  0.50283271  0.32602333  0.87683097     0.03200
H40         H  0.50390691  0.25648522  0.79952458     0.10900
H41         H  0.50233417  0.35333720  0.88755858     0.09900
N42         N  0.50491315  0.17652335  0.97296262    -0.33900
N43         N  0.50493914  0.17653123  0.02816299    -0.26100
C44         C  0.50509305  0.14346748  0.04649290    -0.01300
C45         C  0.50516574  0.12181581  0.00059573     0.07300
C46         C  0.50505000  0.14345301  0.95466994     0.05400
H47         H  0.50523782  0.13583383  0.08994297     0.10500
H48         H  0.50515458  0.13580582  0.91122880     0.09300
C49         C  0.50784905  0.71128715  0.44427471     0.32200
C50         C  0.50784832  0.71129570  0.55767900     0.32200
C51         C  0.45966658  0.72955282  0.47191163    -0.04000
C52         C  0.50712787  0.67532542  0.47185411    -0.04700
C53         C  0.55674043  0.72878373  0.47191372    -0.04600
C54         C  0.45966104  0.72955813  0.53002098    -0.04000
C55         C  0.50712751  0.67532582  0.53012352    -0.04700
C56         C  0.55674536  0.72878916  0.53002146    -0.04600
C57         C  0.41179597  0.74454366  0.54710526    -0.30000
N58         N  0.38327909  0.75353877  0.50093752     0.16500
C59         C  0.41181317  0.74453405  0.45479341    -0.30000
H60         H  0.39792175  0.74756315  0.41222728     0.18400
C61         C  0.50648778  0.64118482  0.54719863    -0.29000
N62         N  0.50611018  0.62082871  0.50098867     0.15200
C63         C  0.50648827  0.64119045  0.45478145    -0.29000
C64         C  0.60496681  0.74332160  0.54710866    -0.29300
N65         N  0.63370575  0.75203496  0.50093974     0.15700
H66         H  0.61884901  0.74636809  0.58967440     0.18300
C67         C  0.60495038  0.74331167  0.45479384    -0.29300
H68         H  0.61881555  0.74634844  0.41221903     0.18300
H69         H  0.50635589  0.63182501  0.41219244     0.18300
H70         H  0.39788697  0.74758222  0.58966194     0.18400
H71         H  0.50635495  0.63181277  0.58978717     0.18300
C72         C  0.50200400  0.35815164  0.44383124     0.32200
C73         C  0.50199859  0.35810564  0.55723856     0.32200
C74         C  0.55020272  0.33989423  0.47147032    -0.04000
C75         C  0.50269830  0.39410845  0.47143142    -0.04700
C76         C  0.45311854  0.34063040  0.47146513    -0.04600
C77         C  0.55019666  0.33987114  0.52957881    -0.04000
C78         C  0.50269547  0.39408072  0.52970181    -0.04700
C79         C  0.45311924  0.34060742  0.52957484    -0.04600
C80         C  0.59809212  0.32493631  0.54667689    -0.30000
N81         N  0.62664818  0.31598653  0.50052015     0.16500
C82         C  0.59810777  0.32497278  0.45436529    -0.30000
H83         H  0.61203137  0.32198041  0.41180509     0.18400
C84         C  0.50335830  0.42820721  0.54681701    -0.29000
N85         N  0.50375179  0.44859086  0.50063490     0.15200
C86         C  0.50336277  0.42825724  0.45439947    -0.29000
C87         C  0.40489221  0.32609015  0.54666986    -0.29300
N88         N  0.37613267  0.31740127  0.50050894     0.15700
H89         H  0.39101072  0.32304985  0.58923843     0.18300
C90         C  0.40488481  0.32612633  0.45435470    -0.29300
H91         H  0.39099525  0.32311931  0.41178431     0.18300
H92         H  0.50351983  0.43764978  0.41182253     0.18300
H93         H  0.61200013  0.32191044  0.58923789     0.18400
H94         H  0.50351124  0.43755200  0.58941756     0.18300
C95         C  0.00794433  0.85815180  0.55730792     0.32200
C96         C  0.00794726  0.85812970  0.44389811     0.32200
C97         C  0.95975756  0.83986192  0.52967024    -0.04000
C98         C  0.00722286  0.89411174  0.52971446    -0.04700
C99         C  0.05683624  0.84067953  0.52967117    -0.04600
C100        C  0.95975466  0.83985018  0.47155944    -0.04000
C101        C  0.00722447  0.89410034  0.47144289    -0.04700
C102        C  0.05684171  0.84066786  0.47156337    -0.04600
C103        C  0.91182624  0.82492176  0.45447597    -0.30000
N104        N  0.88326930  0.81596356  0.50064331     0.16500
C105        C  0.91183749  0.82494096  0.54678710    -0.30000
H106        H  0.89791340  0.82195566  0.58935111     0.18400
C107        C  0.00653380  0.92823377  0.45434537    -0.29000
N108        N  0.00612489  0.94860039  0.50054023     0.15200
C109        C  0.00653122  0.92825172  0.54676374    -0.29000
C110        C  0.10508300  0.82618895  0.45447836    -0.29300
N111        N  0.13383434  0.81751263  0.50064842     0.15700
H112        H  0.11897271  0.82315933  0.41191334     0.18300
C113        C  0.10506827  0.82620802  0.54679314    -0.29300
H114        H  0.11894354  0.82319640  0.58936777     0.18300
H115        H  0.00636826  0.93762888  0.58934589     0.18300
H116        H  0.89789089  0.82191832  0.41192050     0.18400
H117        H  0.00637317  0.93759432  0.41175033     0.18300
C118        C  0.00189574  0.21126757  0.55731234     0.32200
C119        C  0.00189273  0.21131475  0.44390973     0.32200
C120        C  0.05009902  0.22955294  0.52968146    -0.04000
C121        C  0.00258944  0.17531431  0.52971388    -0.04700
C122        C  0.95301732  0.22876405  0.52968021    -0.04600
C123        C  0.05009506  0.22957716  0.47156978    -0.04000
C124        C  0.00258794  0.17533859  0.47144531    -0.04700
C125        C  0.95301794  0.22878832  0.47157458    -0.04600
C126        C  0.09798887  0.24454457  0.45447783    -0.30000
N127        N  0.12654228  0.25351204  0.50063773     0.16500
C128        C  0.09799930  0.24450569  0.54679010    -0.30000
H129        H  0.11192001  0.24750346  0.58935172     0.18400
C130        C  0.00324792  0.14120885  0.45434073    -0.29000
N131        N  0.00363914  0.12083177  0.50053171     0.15200
C132        C  0.00325031  0.14117052  0.54675815    -0.29000
C133        C  0.90482498  0.24332567  0.45448092    -0.29300
N134        N  0.87608873  0.25202383  0.50064380     0.15700
H135        H  0.89095913  0.24638853  0.41191237     0.18300
C136        C  0.90482020  0.24328670  0.54679592    -0.29300
H137        H  0.89094979  0.24631351  0.58936804     0.18300
H138        H  0.00340621  0.13178421  0.58933851     0.18300
H139        H  0.11189965  0.24757826  0.41191808     0.18400
H140        H  0.00340156  0.13185796  0.41174357     0.18300
N141        N  0.00662913  0.76983309  0.88683195    -0.25100
N142        N  0.00711856  0.79974457  0.91408393    -0.32900
C143        C  0.00763555  0.82599311  0.87687409     0.03300
C144        C  0.00745665  0.81174711  0.82400365     0.09300
C145        C  0.00681251  0.77622760  0.83167209    -0.03800
H146        H  0.00810966  0.85330832  0.88759539     0.10000
H147        H  0.00652218  0.75644702  0.79958527     0.11200
Cu148      Cu  0.00712356  0.80335418  0.00061024     0.44200
Cu149      Cu  0.00592900  0.72149492  0.92529230     0.42000
Cu150      Cu  0.00598642  0.72148121  0.07601572     0.43900
N151        N  0.00715179  0.79974055  0.08713808    -0.30000
N152        N  0.00668676  0.76983246  0.11441404    -0.26700
C153        C  0.00688163  0.77623553  0.16956805    -0.02800
C154        C  0.00750751  0.81175565  0.17720819     0.09400
C155        C  0.00766350  0.82599436  0.12432771     0.03200
H156        H  0.00660617  0.75645992  0.20167068     0.10900
H157        H  0.00811448  0.85330828  0.11358536     0.09900
N158        N  0.00582724  0.67648656  0.02825622    -0.33900
N159        N  0.00580429  0.67649418  0.97305552    -0.26100
C160        C  0.00554624  0.64342984  0.95473925    -0.01300
C161        C  0.00540337  0.62177772  0.00064563     0.07300
C162        C  0.00558444  0.64341612  0.04656168     0.05400
H163        H  0.00531926  0.63579633  0.91129245     0.10500
H164        H  0.00539299  0.63576947  0.09000580     0.09300
N165        N  0.00164705  0.29950089  0.11431767    -0.25100
N166        N  0.00172338  0.26958120  0.08708581    -0.32900
C167        C  0.00165824  0.24334006  0.12431077     0.03300
C168        C  0.00153744  0.25760208  0.17716833     0.09300
C169        C  0.00154001  0.29312051  0.16947943    -0.03800
H170        H  0.00169273  0.21602032  0.11360801     0.10000
H171        H  0.00145313  0.31291001  0.20155321     0.11200
Cu172      Cu  0.00183415  0.26595253  0.00057268     0.44200
Cu173      Cu  0.00152256  0.34783116  0.07584270     0.42000
Cu174      Cu  0.00147088  0.34783152  0.92514847     0.43900
N175        N  0.00170097  0.26956499  0.91405621    -0.32400
N176        N  0.00160288  0.29947203  0.88677354    -0.26700
C177        C  0.00149088  0.29306195  0.83162267    -0.02800
C178        C  0.00150793  0.25753937  0.82399614     0.09400
C179        C  0.00164559  0.24330523  0.87687660     0.03200
H180        H  0.00139131  0.31283419  0.79951372     0.10900
H181        H  0.00170102  0.21599098  0.88762650     0.09900
N182        N  0.00100179  0.39283317  0.97288699    -0.33900
N183        N  0.00102319  0.39282841  0.02808678    -0.26100
C184        C  0.00094247  0.42589290  0.04640128    -0.01300
C185        C  0.00086069  0.44754333  0.00049344     0.07300
C186        C  0.00090676  0.42590314  0.95457840     0.05400
H187        H  0.00115729  0.43352813  0.08984732     0.10500
H188        H  0.00108850  0.43354898  0.91113390     0.09300
C189        C  0.00153004  0.48493643  0.00050741    -0.16300
C190        C  0.00239806  0.51629373  0.00054457     0.07800
C191        C  0.00359129  0.55302946  0.00059668     0.09600
C192        C  0.00453955  0.58438592  0.00063135    -0.17100
C193        C  0.00185047  0.21220870  0.61861228    -0.16300
C194        C  0.00171497  0.21721379  0.66829759     0.07800
C195        C  0.00155186  0.22748849  0.72489853     0.09600
C196        C  0.00148380  0.23959720  0.77133214    -0.17100
C197        C  0.00150235  0.23968886  0.22986623    -0.16300
C198        C  0.00156110  0.22759944  0.27631850     0.07800
C199        C  0.00171492  0.21732886  0.33292693     0.09600
C200        C  0.00184601  0.21230489  0.38261013    -0.17100
C201        C  0.00779621  0.82967930  0.77131612    -0.16300
C202        C  0.00795131  0.84180415  0.72488375     0.07800
C203        C  0.00799147  0.85212682  0.66829339     0.09600
C204        C  0.00796360  0.85717994  0.61861408    -0.17100
C205        C  0.00783780  0.82969214  0.22988310    -0.16300
C206        C  0.00798238  0.84180627  0.27631701     0.07800
C207        C  0.00800913  0.85210614  0.33291293     0.09600
C208        C  0.00797180  0.85714555  0.38259338    -0.17100
C209        C  0.00554330  0.98503145  0.50051496    -0.16300
C210        C  0.00510323  0.01636779  0.50049820     0.07800
C211        C  0.00463187  0.05306433  0.50049183     0.09600
C212        C  0.00420132  0.08440069  0.50050293    -0.17100
C213        C  0.82345715  0.26575986  0.50064368    -0.16300
C214        C  0.77798213  0.27724949  0.50061615     0.07800
C215        C  0.72461204  0.29053419  0.50056339     0.09600
C216        C  0.67918024  0.30209408  0.50052935    -0.17100
C217        C  0.17908638  0.26742017  0.50063395    -0.16300
C218        C  0.22453638  0.27898071  0.50060300     0.07800
C219        C  0.27794139  0.29224605  0.50054771     0.09600
C220        C  0.32345347  0.30370553  0.50051424    -0.17100
C221        C  0.18650072  0.80382777  0.50068122    -0.16300
C222        C  0.23199395  0.79236453  0.50074392     0.07800
C223        C  0.28536524  0.77907646  0.50083978     0.09600
C224        C  0.33077993  0.76748579  0.50090449    -0.17100
C225        C  0.83070591  0.80208623  0.50067524    -0.16300
C226        C  0.78524988  0.79053623  0.50073992     0.07800
C227        C  0.73185416  0.77725693  0.50083961     0.09600
C228        C  0.68635987  0.76576930  0.50090650    -0.17100
C229        C  0.50431259  0.48502314  0.50069627    -0.16300
C230        C  0.50473679  0.51636049  0.50078549     0.07800
C231        C  0.50518566  0.55305858  0.50090297     0.09600
C232        C  0.50558777  0.58439610  0.50097008    -0.17100
C233        C  0.50200382  0.35711558  0.61854029    -0.16300
C234        C  0.50206169  0.35208817  0.66822382     0.07800
C235        C  0.50223069  0.34180966  0.72483023     0.09600
C236        C  0.50249216  0.32971002  0.77127599    -0.17100
C237        C  0.50254222  0.32971172  0.22983113    -0.16300
C238        C  0.50226824  0.34183514  0.27625822     0.07800
C239        C  0.50208451  0.35215085  0.33284640     0.09600
C240        C  0.50201648  0.35719358  0.38252589    -0.17100
C241        C  0.50786287  0.71227291  0.61898170    -0.16300
C242        C  0.50789730  0.71730348  0.66866327     0.07800
C243        C  0.50790834  0.72759105  0.72526297     0.09600
C244        C  0.50785092  0.73969397  0.77170328    -0.17100
C245        C  0.50788119  0.73965770  0.23024774    -0.16300
C246        C  0.50792865  0.72755007  0.27668740     0.07800
C247        C  0.50790667  0.71726864  0.33329021     0.09600
C248        C  0.50786582  0.71225028  0.38297458    -0.17100
C249        C  0.50574032  0.08442339  0.00063156    -0.16300
C250        C  0.50639805  0.05306507  0.00070635     0.07800
C251        C  0.50723075  0.01632701  0.00081762     0.09600
C252        C  0.50781178  0.98496808  0.00089896    -0.17100
loop_ 
_geom_bond_atom_site_label_1 
_geom_bond_atom_site_label_2 
_geom_bond_distance 
_geom_bond_site_symmetry_2 
_ccdc_geom_bond_type 
N1            N2   1.324       .  A
N1            C5   1.345       .  A
N1           Cu9   2.076       .  S
N2            C3   1.347       .  A
N2           Cu8   2.078   1_556  S
C3            C4   1.381       .  A
C3            H6   1.082       .  S
C4            C5   1.379       .  A
C4          C244   1.439       .  S
C5            H7   1.082       .  S
Cu8          N11   2.078       .  S
Cu9          N19   2.076       .  S
Cu10         N12   2.076       .  S
Cu10         N18   2.076       .  S
N11          N12   1.324       .  A
N11          C15   1.347       .  A
N12          C13   1.345       .  A
C13          C14   1.379       .  A
C13          H16   1.082       .  S
C14          C15   1.381       .  A
C14         C245   1.439       .  S
C15          H17   1.082       .  S
N18          N19   1.323   1_554  A
N18          C22   1.346       .  A
N19          C20   1.346       .  A
C20          C21   1.380   1_556  A
C20          H23   1.082       .  S
C21          C22   1.380       .  A
C21         C252   1.439       .  S
C22          H24   1.082       .  S
N25          N26   1.324       .  A
N25          C29   1.345       .  A
N25         Cu33   2.076       .  S
N26          C27   1.347       .  A
N26         Cu32   2.078       .  S
C27          C28   1.381       .  A
C27          H30   1.082       .  S
C28          C29   1.379       .  A
C28         C237   1.439       .  S
C29          H31   1.082       .  S
Cu32         N35   2.078   1_554  S
Cu33         N43   2.076       .  S
Cu34         N36   2.076       .  S
Cu34         N42   2.076       .  S
N35          N36   1.324       .  A
N35          C39   1.347       .  A
N36          C37   1.345       .  A
C37          C38   1.379       .  A
C37          H40   1.082       .  S
C38          C39   1.381       .  A
C38         C236   1.439       .  S
C39          H41   1.082       .  S
N42          N43   1.323   1_556  A
N42          C46   1.346       .  A
N43          C44   1.346       .  A
C44          C45   1.380       .  A
C44          H47   1.082       .  S
C45          C46   1.380   1_554  A
C45         C249   1.439       .  S
C46          H48   1.082       .  S
C49          C51   1.532       .  S
C49          C53   1.532       .  S
C49          C52   1.534       .  S
C49         C248   1.470       .  S
C50          C54   1.532       .  S
C50          C56   1.532       .  S
C50          C55   1.534       .  S
C50         C241   1.470       .  S
C51          C59   1.377       .  A
C51          C54   1.393       .  A
C52          C63   1.376       .  A
C52          C55   1.397       .  A
C53          C67   1.377       .  A
C53          C56   1.393       .  A
C54          C57   1.377       .  A
C55          C61   1.376       .  A
C56          C64   1.377       .  A
C57          N58   1.356       .  A
C57          H70   1.083       .  S
N58          C59   1.356       .  A
N58         C224   1.403       .  S
C59          H60   1.083       .  S
C61          N62   1.357       .  A
C61          H71   1.083       .  S
N62          C63   1.357       .  A
N62         C232   1.402       .  S
C63          H69   1.083       .  S
C64          N65   1.356       .  A
C64          H66   1.083       .  S
N65          C67   1.356       .  A
N65         C228   1.403       .  S
C67          H68   1.083       .  S
C72          C74   1.532       .  S
C72          C76   1.532       .  S
C72          C75   1.534       .  S
C72         C240   1.470       .  S
C73          C77   1.532       .  S
C73          C79   1.532       .  S
C73          C78   1.534       .  S
C73         C233   1.470       .  S
C74          C82   1.377       .  A
C74          C77   1.393       .  A
C75          C86   1.376       .  A
C75          C78   1.397       .  A
C76          C90   1.377       .  A
C76          C79   1.393       .  A
C77          C80   1.377       .  A
C78          C84   1.376       .  A
C79          C87   1.377       .  A
C80          N81   1.356       .  A
C80          H93   1.083       .  S
N81          C82   1.356       .  A
N81         C216   1.403       .  S
C82          H83   1.083       .  S
C84          N85   1.357       .  A
C84          H94   1.083       .  S
N85          C86   1.357       .  A
N85         C229   1.402       .  S
C86          H92   1.083       .  S
C87          N88   1.356       .  A
C87          H89   1.083       .  S
N88          C90   1.356       .  A
N88         C220   1.403       .  S
C90          H91   1.083       .  S
C95          C97   1.532   1_455  S
C95          C99   1.532       .  S
C95          C98   1.534       .  S
C95         C204   1.470       .  S
C96         C100   1.532   1_455  S
C96         C102   1.532       .  S
C96         C101   1.534       .  S
C96         C208   1.470       .  S
C97         C105   1.377       .  A
C97         C100   1.393       .  A
C98         C109   1.376       .  A
C98         C101   1.397       .  A
C99         C113   1.377       .  A
C99         C102   1.393       .  A
C100        C103   1.377       .  A
C101        C107   1.376       .  A
C102        C110   1.377       .  A
C103        N104   1.356       .  A
C103        H116   1.083       .  S
N104        C105   1.356       .  A
N104        C225   1.403       .  S
C105        H106   1.083       .  S
C107        N108   1.357       .  A
C107        H117   1.083       .  S
N108        C109   1.357       .  A
N108        C209   1.402       .  S
C109        H115   1.083       .  S
C110        N111   1.356       .  A
C110        H112   1.083       .  S
N111        C113   1.356       .  A
N111        C221   1.403       .  S
C113        H114   1.083       .  S
C118        C120   1.532       .  S
C118        C122   1.532   1_455  S
C118        C121   1.534       .  S
C118        C193   1.470       .  S
C119        C123   1.532       .  S
C119        C125   1.532   1_455  S
C119        C124   1.534       .  S
C119        C200   1.470       .  S
C120        C128   1.377       .  A
C120        C123   1.393       .  A
C121        C132   1.376       .  A
C121        C124   1.397       .  A
C122        C136   1.377       .  A
C122        C125   1.393       .  A
C123        C126   1.377       .  A
C124        C130   1.376       .  A
C125        C133   1.377       .  A
C126        N127   1.356       .  A
C126        H139   1.083       .  S
N127        C128   1.356       .  A
N127        C217   1.403       .  S
C128        H129   1.083       .  S
C130        N131   1.357       .  A
C130        H140   1.083       .  S
N131        C132   1.357       .  A
N131        C212   1.402       .  S
C132        H138   1.083       .  S
C133        N134   1.356       .  A
C133        H135   1.083       .  S
N134        C136   1.356       .  A
N134        C213   1.403       .  S
C136        H137   1.083       .  S
N141        N142   1.324       .  A
N141        C145   1.345       .  A
N141       Cu149   2.076       .  S
N142        C143   1.347       .  A
N142       Cu148   2.079   1_556  S
C143        C144   1.381       .  A
C143        H146   1.082       .  S
C144        C145   1.379       .  A
C144        C201   1.439       .  S
C145        H147   1.082       .  S
Cu148       N151   2.079       .  S
Cu149       N159   2.076       .  S
Cu150       N152   2.076       .  S
Cu150       N158   2.076       .  S
N151        N152   1.324       .  A
N151        C155   1.347       .  A
N152        C153   1.345       .  A
C153        C154   1.379       .  A
C153        H156   1.082       .  S
C154        C155   1.381       .  A
C154        C205   1.439       .  S
C155        H157   1.082       .  S
N158        N159   1.323   1_554  A
N158        C162   1.346       .  A
N159        C160   1.346       .  A
C160        C161   1.380   1_556  A
C160        H163   1.082       .  S
C161        C162   1.380       .  A
C161        C192   1.439       .  S
C162        H164   1.082       .  S
N165        N166   1.324       .  A
N165        C169   1.345       .  A
N165       Cu173   2.076       .  S
N166        C167   1.347       .  A
N166       Cu172   2.078       .  S
C167        C168   1.381       .  A
C167        H170   1.082       .  S
C168        C169   1.379       .  A
C168        C197   1.439       .  S
C169        H171   1.082       .  S
Cu172       N175   2.078   1_554  S
Cu173       N183   2.076       .  S
Cu174       N176   2.076       .  S
Cu174       N182   2.076       .  S
N175        N176   1.324       .  A
N175        C179   1.347       .  A
N176        C177   1.345       .  A
C177        C178   1.379       .  A
C177        H180   1.082       .  S
C178        C179   1.381       .  A
C178        C196   1.439       .  S
C179        H181   1.082       .  S
N182        N183   1.323   1_556  A
N182        C186   1.346       .  A
N183        C184   1.346       .  A
C184        C185   1.380       .  A
C184        H187   1.082       .  S
C185        C186   1.380   1_554  A
C185        C189   1.439       .  S
C186        H188   1.082       .  S
C189        C190   1.207       .  T
C190        C191   1.414       .  S
C191        C192   1.207       .  T
C193        C194   1.206       .  T
C194        C195   1.413       .  S
C195        C196   1.207       .  T
C197        C198   1.207       .  T
C198        C199   1.413       .  S
C199        C200   1.206       .  T
C201        C202   1.207       .  T
C202        C203   1.413       .  S
C203        C204   1.206       .  T
C205        C206   1.207       .  T
C206        C207   1.413       .  S
C207        C208   1.206       .  T
C209        C210   1.206   1_565  T
C210        C211   1.412       .  S
C211        C212   1.206       .  T
C213        C214   1.206       .  T
C214        C215   1.413       .  S
C215        C216   1.207       .  T
C217        C218   1.207       .  T
C218        C219   1.413       .  S
C219        C220   1.207       .  T
C221        C222   1.207       .  T
C222        C223   1.413       .  S
C223        C224   1.207       .  T
C225        C226   1.207       .  T
C226        C227   1.413       .  S
C227        C228   1.207       .  T
C229        C230   1.206       .  T
C230        C231   1.412       .  S
C231        C232   1.206       .  T
C233        C234   1.206       .  T
C234        C235   1.413       .  S
C235        C236   1.207       .  T
C237        C238   1.207       .  T
C238        C239   1.413       .  S
C239        C240   1.206       .  T
C241        C242   1.206       .  T
C242        C243   1.413       .  S
C243        C244   1.207       .  T
C245        C246   1.207       .  T
C246        C247   1.413       .  S
C247        C248   1.206       .  T
C249        C250   1.207       .  T
C250        C251   1.414       .  S
C251        C252   1.207   1_545  T
