geometry optimzed in LAMMPS
_audit_creation_date              2020-11-30 
_audit_creation_method            'lammps2cif' 
_symmetry_space_group_name_H-M    'P1' 
_symmetry_Int_Tables_number       1 
_symmetry_cell_setting            triclinic 
loop_ 
_symmetry_equiv_pos_as_xyz 
  x,y,z 
_cell_length_a                    32.130155 
_cell_length_b                    32.115593688196384 
_cell_length_c                    30.355987408984394 
_cell_angle_alpha                 90.75168737259963 
_cell_angle_beta                  91.00045549503997 
_cell_angle_gamma                 89.86206311743548 
loop_ 
_atom_site_label 
_atom_site_type_symbol 
_atom_site_fract_x 
_atom_site_fract_y 
_atom_site_fract_z 
_atom_site_charge 
N1          N  0.95835190  0.04562865  0.99580433    -0.35600
N2          N  0.04852630  0.04786376  0.99454183    -0.56200
N3          N  0.05050447  0.95726115  0.99394912    -0.35600
N4          N  0.96043726  0.95538587  0.00049881    -0.56200
C5          C  0.96527401  0.08623363  0.00565057     0.28000
C6          C  0.91856158  0.03738321  0.00627380     0.28000
C7          C  0.09127739  0.96615095  0.00072622     0.28000
C8          C  0.04467249  0.91728760  0.00606279     0.28000
C9          C  0.04009076  0.08841586  0.98692581     0.36600
C10         C  0.08864860  0.04165914  0.98352882     0.36600
C11         C  0.91919022  0.96087220  0.99333860     0.36600
C12         C  0.96781058  0.91420236  0.99540397     0.36600
C13         C  0.92942083  0.10398853  0.02252833    -0.20900
C14         C  0.89983838  0.07315063  0.02272821    -0.20900
C15         C  0.11162672  0.93127855  0.01703128    -0.20900
C16         C  0.08224966  0.90043921  0.02026494    -0.20900
C17         C  0.07496350  0.10814435  0.97109631    -0.21900
C18         C  0.10569450  0.07843041  0.96865427    -0.21900
C19         C  0.90022390  0.92301409  0.98383125    -0.21900
C20         C  0.93105515  0.89336946  0.98531931    -0.21900
C21         C  0.00207016  0.10830591  0.99669999    -0.17300
C22         C  0.89803702  0.99908076  0.99891682    -0.17300
C23         C  0.00685150  0.89491775  0.00236173    -0.17300
C24         C  0.11094613  0.00421254  0.99052286    -0.17300
H25         H  0.92483460  0.13600056  0.03297219     0.15600
H26         H  0.86807813  0.07671473  0.03351241     0.15600
H27         H  0.14430976  0.92823942  0.02563646     0.15600
H28         H  0.08796286  0.86910239  0.03163124     0.15600
H29         H  0.07798347  0.14057262  0.96244192     0.13900
H30         H  0.13718601  0.08350120  0.95787501     0.13900
H31         H  0.86750175  0.91726188  0.97730247     0.13900
H32         H  0.92684946  0.86025572  0.97990565     0.13900
H33         H  0.97785122  0.02601134  0.97798609     0.27200
H34         H  0.02898376  0.97593897  0.97745433     0.27200
N35         N  0.95196228  0.04469734  0.50601705    -0.35600
N36         N  0.95150200  0.95469134  0.50351272    -0.56200
N37         N  0.04166154  0.95446330  0.50225191    -0.35600
N38         N  0.04216271  0.04455539  0.50037706    -0.56200
C39         C  0.91111669  0.03703471  0.49819705     0.28000
C40         C  0.95903351  0.08447828  0.49427622     0.28000
C41         C  0.03321516  0.91464820  0.48995818     0.28000
C42         C  0.08162161  0.96208224  0.49162022     0.28000
C43         C  0.91163828  0.96177333  0.51482358     0.36600
C44         C  0.95878390  0.91384331  0.51021204     0.36600
C45         C  0.03547507  0.08560092  0.50759626     0.36600
C46         C  0.08305712  0.03776888  0.50861895     0.36600
C47         C  0.89193713  0.07236722  0.48159973    -0.20900
C48         C  0.92225368  0.10235117  0.47904810    -0.20900
C49         C  0.06816871  0.89692319  0.47106051    -0.20900
C50         C  0.09882097  0.92680009  0.47239188    -0.20900
C51         C  0.89344166  0.92534262  0.52889961    -0.21900
C52         C  0.92344198  0.89491841  0.52617146    -0.21900
C53         C  0.07228760  0.10512001  0.52016960    -0.21900
C54         C  0.10244343  0.07470538  0.52115765    -0.21900
C55         C  0.89047336  0.99966009  0.50802208    -0.17300
C56         C  0.99703417  0.10592316  0.50032636    -0.17300
C57         C  0.10347997  0.99935678  0.50117318    -0.17300
C58         C  0.99590521  0.89309413  0.49868985    -0.17300
H59         H  0.85942033  0.07627036  0.47264139     0.15600
H60         H  0.91762188  0.13391115  0.46784601     0.15600
H61         H  0.07148400  0.86550329  0.45825752     0.15600
H62         H  0.13023975  0.92295108  0.46067765     0.15600
H63         H  0.86168535  0.92103120  0.53923552     0.13900
H64         H  0.91945064  0.86247987  0.53429553     0.13900
H65         H  0.07694235  0.13785334  0.52758989     0.13900
H66         H  0.13502100  0.07941993  0.52935149     0.13900
H67         H  0.97247280  0.02565560  0.52313824     0.27200
H68         H  0.02317463  0.97354650  0.52159053     0.27200
O69         O  0.96347045  0.44281401  0.99976899    -0.73400
O70         O  0.96632781  0.56219453  0.00160180    -0.73500
O71         O  0.96671740  0.50250387  0.93745008    -0.73500
O72         O  0.96299712  0.50268447  0.06336061    -0.73600
O73         O  0.03225414  0.50132862  0.06682340    -0.73500
O74         O  0.03600230  0.49990750  0.94063974    -0.73500
O75         O  0.03559156  0.56034180  0.00432230    -0.73400
O76         O  0.03272045  0.44114296  0.00355107    -0.73500
Ni77       Ni  0.96242843  0.50259773  0.00033332     1.25400
Ni78       Ni  0.03660474  0.50063000  0.00390500     1.25400
C79         C  0.99765655  0.42220792  0.00172365     0.88800
C80         C  0.00142391  0.58104743  0.00392025     0.88700
C81         C  0.00187805  0.50092988  0.91818096     0.88700
C82         C  0.99702287  0.50226882  0.08597884     0.88900
O83         O  0.95533717  0.44033270  0.50024492    -0.73400
O84         O  0.95825412  0.55968760  0.50371057    -0.73500
O85         O  0.95421306  0.50146519  0.43902158    -0.73500
O86         O  0.95949600  0.49879379  0.56529989    -0.73600
O87         O  0.02879086  0.49869479  0.56342395    -0.73500
O88         O  0.02354350  0.49759861  0.43746495    -0.73500
O89         O  0.02739743  0.55780657  0.50034163    -0.73400
O90         O  0.02463741  0.43874052  0.49987628    -0.73500
Ni91       Ni  0.95432387  0.50012312  0.50221999     1.25400
Ni92       Ni  0.02852695  0.49817110  0.50028800     1.25400
C93         C  0.98958071  0.41978704  0.49949111     0.88800
C94         C  0.99328378  0.57850651  0.50148611     0.88700
C95         C  0.98817375  0.49978254  0.41757840     0.88700
C96         C  0.99501716  0.49834462  0.58522031     0.88900
O97         O  0.56424709  0.03613873  0.99983580    -0.73400
O98         O  0.44518568  0.03472935  0.99420702    -0.73500
O99         O  0.50288196  0.03718023  0.06015097    -0.73500
O100        O  0.50687478  0.03363165  0.93409001    -0.73600
O101        O  0.50657428  0.96429044  0.93528589    -0.73500
O102        O  0.50505262  0.96782085  0.06142893    -0.73500
O103        O  0.44582172  0.96547915  0.99651132    -0.73400
O104        O  0.56519868  0.96679972  0.00017881    -0.73500
Ni105      Ni  0.50471094  0.03786670  0.99705135     1.25400
Ni106      Ni  0.50562704  0.96361933  0.99840523     1.25400
C107        C  0.58445294  0.00172078  0.00030769     0.88800
C108        C  0.42569802  0.99996524  0.99474466     0.88700
C109        C  0.50374856  0.00308036  0.08160089     0.88700
C110        C  0.50786283  0.99837615  0.91386998     0.88900
O111        O  0.55637785  0.03491935  0.49862635    -0.73400
O112        O  0.43740717  0.03282360  0.50179927    -0.73500
O113        O  0.49955015  0.03095174  0.56287282    -0.73500
O114        O  0.49430404  0.03689014  0.43711734    -0.73600
O115        O  0.49414291  0.96762813  0.43270768    -0.73500
O116        O  0.50216860  0.96165691  0.55871501    -0.73500
O117        O  0.43839578  0.96354326  0.49870631    -0.73400
O118        O  0.55750449  0.96572850  0.49289921    -0.73500
Ni119      Ni  0.49683124  0.03632343  0.50022064     1.25400
Ni120      Ni  0.49804563  0.96214739  0.49553360     1.25400
C121        C  0.57668070  0.00065407  0.49566604     0.88800
C122        C  0.41814423  0.99793580  0.50110373     0.88700
C123        C  0.50219440  0.99549128  0.58157205     0.88700
C124        C  0.49348001  0.00322505  0.41403270     0.88900
C125        C  0.52550418  0.02983584  0.79551339    -0.27200
C126        C  0.51242178  0.99401674  0.77212888     0.06400
C127        C  0.49979493  0.95902109  0.79581752     0.26000
C128        C  0.49902391  0.96049332  0.84185428    -0.11700
C129        C  0.51053261  0.99688211  0.86519922    -0.25600
C130        C  0.52448128  0.03144361  0.84151454     0.36800
C131        C  0.51030899  0.99412022  0.72322186     0.06400
F132        F  0.48650353  0.92397611  0.77448608    -0.19400
H133        H  0.48835077  0.93337959  0.85920592     0.16200
F134        F  0.53753365  0.06669006  0.86266517    -0.23100
H135        H  0.53634227  0.05681406  0.77803708     0.18000
C136        C  0.49099221  0.02730153  0.70096141     0.26000
C137        C  0.48869062  0.02734644  0.65503921    -0.11700
C138        C  0.50499734  0.99414106  0.63020577    -0.25700
C139        C  0.52412244  0.96070345  0.65233557     0.36900
C140        C  0.52692225  0.96092097  0.69844511    -0.27300
F141        F  0.47321871  0.05922565  0.72361374    -0.19400
H142        H  0.47344271  0.05324385  0.63885221     0.16200
F143        F  0.54104603  0.92839557  0.62953130    -0.23100
H144        H  0.54243330  0.93529298  0.71481782     0.18100
C145        C  0.51999296  0.97431974  0.20138484    -0.27200
C146        C  0.49863386  0.00657485  0.22320951     0.06400
C147        C  0.48029007  0.03845481  0.19798961     0.26000
C148        C  0.48274766  0.03747231  0.15202324    -0.11700
C149        C  0.50292411  0.00448605  0.13026457    -0.25600
C150        C  0.52182549  0.97296560  0.15542563     0.36800
C151        C  0.49542228  0.00636547  0.27203951     0.06400
F152        F  0.45871944  0.06980334  0.21755328    -0.19400
H153        H  0.46785222  0.06202262  0.13332002     0.16200
F154        F  0.54278648  0.94125373  0.13572339    -0.23100
H155        H  0.53543420  0.95005462  0.22000685     0.18000
C156        C  0.48511617  0.96961780  0.29410685     0.26000
C157        C  0.48397050  0.96909714  0.34007945    -0.11700
C158        C  0.49252236  0.00522898  0.36519796    -0.25700
C159        C  0.50148445  0.04240660  0.34307042     0.36900
C160        C  0.50326211  0.04273233  0.29704042    -0.27300
F161        F  0.47561005  0.93420367  0.27123076    -0.19400
H162        H  0.47637533  0.94019168  0.35603736     0.16200
F163        F  0.50972213  0.07824271  0.36574446    -0.23100
H164        H  0.51169282  0.07133693  0.28097863     0.18100
C165        C  0.96605327  0.48244581  0.70449552    -0.27200
C166        C  0.00129162  0.49807191  0.72717812     0.06400
C167        C  0.03498981  0.51263310  0.70273956     0.26000
C168        C  0.03294964  0.51211160  0.65662903    -0.11700
C169        C  0.99719074  0.49752705  0.63400021    -0.25600
C170        C  0.96380497  0.48234206  0.65848025     0.36800
C171        C  0.00214976  0.49954737  0.77615164     0.06400
F172        F  0.06929302  0.52869270  0.72335792    -0.19400
H173        H  0.05906765  0.52403687  0.63860767     0.16200
F174        F  0.92922825  0.46667520  0.63805007    -0.23100
H175        H  0.94012239  0.47013457  0.72252435     0.18000
C176        C  0.96807820  0.51571143  0.79937955     0.26000
C177        C  0.96834065  0.51589785  0.84538427    -0.11700
C178        C  0.00271006  0.50052215  0.86937834    -0.25700
C179        C  0.03707909  0.48473111  0.84621941     0.36900
C180        C  0.03662596  0.48416963  0.80005504    -0.27300
F181        F  0.93476971  0.53215444  0.77760964    -0.19400
H182        H  0.94166489  0.52861997  0.86229724     0.16200
F183        F  0.07058312  0.46871574  0.86802221    -0.23100
H184        H  0.06296363  0.47099148  0.78294228     0.18100
C185        C  0.96475884  0.53065981  0.29996641    -0.27200
C186        C  0.98882990  0.50152985  0.27648875     0.06400
C187        C  0.01156917  0.47129543  0.29999148     0.26000
C188        C  0.01099238  0.47098002  0.34592266    -0.11700
C189        C  0.98699345  0.50000494  0.36920807    -0.25600
C190        C  0.96349619  0.52971079  0.34600398     0.36800
C191        C  0.99076089  0.50300237  0.22773041     0.06400
F192        F  0.03381978  0.44157042  0.27855452    -0.19400
H193        H  0.02900170  0.44768180  0.36341585     0.16200
F194        F  0.94085185  0.55883937  0.36789434    -0.23100
H195        H  0.94755114  0.55465715  0.28270073     0.18000
C196        C  0.95435233  0.50629719  0.20162921     0.26000
C197        C  0.95672594  0.50629561  0.15570259    -0.11700
C198        C  0.99535559  0.50293417  0.13478244    -0.25700
C199        C  0.03182904  0.50012111  0.16104109     0.36900
C200        C  0.02940838  0.50041086  0.20693235    -0.27300
F201        F  0.91634612  0.50822192  0.22039719    -0.19400
H202        H  0.92809929  0.50856940  0.13651194     0.16200
F203        F  0.06990609  0.49670842  0.14264036    -0.23100
H204        H  0.05795070  0.49860469  0.22633788     0.18100
C205        C  0.21598774  0.01901155  0.47169793    -0.27200
C206        C  0.23761277  0.99562103  0.50359402     0.06400
C207        C  0.21474101  0.97342483  0.53468669     0.26000
C208        C  0.17118745  0.97457787  0.53350827    -0.11700
C209        C  0.14976883  0.99814238  0.50172455    -0.25600
C210        C  0.17251097  0.02026423  0.47066998     0.36800
C211        C  0.28386508  0.99569807  0.50456203     0.06400
F212        F  0.23440740  0.95181530  0.56708451    -0.19400
H213        H  0.15404430  0.95751748  0.55780009     0.16200
F214        F  0.15259412  0.04293249  0.43927645    -0.23100
H215        H  0.23287124  0.03619639  0.44730573     0.18000
C216        C  0.30695365  0.95844157  0.50634472     0.26000
C217        C  0.35050750  0.95940290  0.50563570    -0.11700
C218        C  0.37195261  0.99742060  0.50291633    -0.25700
C219        C  0.34867347  0.03467232  0.50139919     0.36900
C220        C  0.30523929  0.03364220  0.50220797    -0.27300
F221        F  0.28748006  0.92100726  0.50713889    -0.19400
H222        H  0.36742106  0.93021686  0.50674330     0.16200
F223        F  0.36762292  0.07224269  0.49854109    -0.23100
H224        H  0.28815287  0.06273746  0.50095925     0.18100
C225        C  0.68874964  0.03662936  0.51066530    -0.27200
C226        C  0.71078955  0.00014940  0.50021276     0.06400
C227        C  0.68852456  0.96404290  0.48802545     0.26000
C228        C  0.64506117  0.96467549  0.48598624    -0.11700
C229        C  0.62283884  0.00118916  0.49627375    -0.25600
C230        C  0.64524147  0.03732649  0.50866978     0.36800
C231        C  0.75689432  0.99992601  0.50234492     0.06400
F232        F  0.70873950  0.92776509  0.47935868    -0.19400
H233        H  0.62878669  0.93632153  0.47667365     0.16200
F234        F  0.62529465  0.07316422  0.51975680    -0.23100
H235        H  0.70533201  0.06475469  0.52020319     0.18000
C236        C  0.78008680  0.98519784  0.46643943     0.26000
C237        C  0.82349184  0.98470283  0.46890907    -0.11700
C238        C  0.84442446  0.99935234  0.50684948    -0.25700
C239        C  0.82156093  0.01461409  0.54258454     0.36900
C240        C  0.77803094  0.01483870  0.54030891    -0.27300
F241        F  0.76082705  0.97244347  0.42848936    -0.19400
H242        H  0.84094230  0.97344378  0.44093647     0.16200
F243        F  0.84136802  0.02904233  0.57956441    -0.23100
H244        H  0.76076278  0.02633401  0.56829944     0.18100
C245        C  0.96851282  0.78130712  0.46719696    -0.27200
C246        C  0.99568536  0.75885973  0.49490460     0.06400
C247        C  0.02347728  0.78089470  0.52292606     0.26000
C248        C  0.02346991  0.82436309  0.52366633    -0.11700
C249        C  0.99605248  0.84675656  0.49638158    -0.25600
C250        C  0.96868019  0.82487533  0.46780448     0.36800
C251        C  0.99472411  0.71263898  0.49503775     0.06400
F252        F  0.04976713  0.76044576  0.55068729    -0.19400
H253        H  0.04460175  0.84071046  0.54602919     0.16200
F254        F  0.94210900  0.84566492  0.44060674    -0.23100
H255        H  0.94729966  0.76506325  0.44485659     0.18000
C256        C  0.95696898  0.69098681  0.49878911     0.26000
C257        C  0.95680101  0.64751963  0.50096132    -0.11700
C258        C  0.99417893  0.62466842  0.49944479    -0.25700
C259        C  0.03189990  0.64643853  0.49494629     0.36900
C260        C  0.03198081  0.68986079  0.49264488    -0.27300
F261        F  0.92030324  0.71184482  0.50170887    -0.19400
H262        H  0.92725376  0.63178547  0.50414568     0.16200
F263        F  0.06884271  0.62600671  0.49265712    -0.23100
H264        H  0.06136127  0.70578910  0.48891135     0.18100
C265        C  0.00788152  0.21695335  0.46170896    -0.27200
C266        C  0.99173998  0.23949811  0.49759025     0.06400
C267        C  0.97750472  0.21775723  0.53432776     0.26000
C268        C  0.97962721  0.17432301  0.53506750    -0.11700
C269        C  0.99606429  0.15200368  0.49938438    -0.25600
C270        C  0.01008771  0.17349396  0.46255785     0.36800
C271        C  0.99065348  0.28560408  0.49691743     0.06400
F272        F  0.96256467  0.23854216  0.56993983    -0.19400
H273        H  0.96860160  0.15796850  0.56357291     0.16200
F274        F  0.02529652  0.15236453  0.42730012    -0.23100
H275        H  0.01852798  0.23306498  0.43289072     0.18000
C276        C  0.02674052  0.30829629  0.48780535     0.26000
C277        C  0.02592185  0.35175623  0.48850369    -0.11700
C278        C  0.98910735  0.37360757  0.49804433    -0.25700
C279        C  0.95272386  0.35080097  0.50647321     0.36900
C280        C  0.95367390  0.30722199  0.50602501    -0.27300
F281        F  0.06317647  0.28845166  0.47949531    -0.19400
H282        H  0.05436341  0.36832133  0.48167557     0.16200
F283        F  0.91640777  0.37039277  0.51588624    -0.23100
H284        H  0.92542137  0.29026861  0.51271577     0.18100
C285        C  0.31263561  0.96421291  0.99535207    -0.27200
C286        C  0.29129009  0.00215386  0.99074374     0.06400
C287        C  0.31429410  0.03909878  0.98757889     0.26000
C288        C  0.35777978  0.03798835  0.98882456    -0.11700
C289        C  0.37939891  0.00007363  0.99337780    -0.25600
C290        C  0.35621227  0.96302854  0.99676283     0.36800
C291        C  0.24512418  0.00316805  0.98983060     0.06400
F292        F  0.29470532  0.07625266  0.98235533    -0.19400
H293        H  0.37452671  0.06703000  0.98604098     0.16200
F294        F  0.37540042  0.92566062  0.00184786    -0.23100
H295        H  0.29546050  0.93544489  0.99844473     0.18000
C296        C  0.22213456  0.97773200  0.96025379     0.26000
C297        C  0.17860862  0.97897679  0.95987625    -0.11700
C298        C  0.15728488  0.00506976  0.98937860    -0.25700
C299        C  0.18026160  0.03048680  0.01894674     0.36900
C300        C  0.22375852  0.02965178  0.01892938    -0.27300
F301        F  0.24176058  0.95210603  0.93135744    -0.19400
H302        H  0.16139168  0.95920034  0.93687333     0.16200
F303        F  0.16058775  0.05546773  0.04843413    -0.23100
H304        H  0.24084906  0.04913839  0.04230923     0.18100
C305        C  0.69635969  0.03821463  0.99116820    -0.27200
C306        C  0.71845401  0.00137599  0.99972887     0.06400
C307        C  0.69631369  0.96487752  0.00877998     0.26000
C308        C  0.65286021  0.96532673  0.00912737    -0.11700
C309        C  0.63057392  0.00215313  0.00058263    -0.25600
C310        C  0.65286740  0.03874683  0.99152439     0.36800
C311        C  0.76451123  0.00111483  0.99935093     0.06400
F312        F  0.71669045  0.92850046  0.01624808    -0.19400
H313        H  0.63665395  0.93667739  0.01603910     0.16200
F314        F  0.63283102  0.07493869  0.98229012    -0.23100
H315        H  0.71286632  0.06674411  0.98444540     0.18000
C316        C  0.78620427  0.01691338  0.96333101     0.26000
C317        C  0.82967717  0.01587663  0.96325569    -0.10900
C318        C  0.85199082  0.99908129  0.99894221    -0.25700
C319        C  0.83051779  0.98366328  0.03505946     0.36900
C320        C  0.78708423  0.98471558  0.03522156    -0.27300
F321        F  0.76538742  0.03246789  0.92787000    -0.19400
H322        H  0.84604896  0.02804508  0.93532259     0.16200
F323        F  0.85167923  0.96817582  0.07031553    -0.23100
H324        H  0.77100557  0.97305424  0.06358084     0.18100
C325        C  0.99223244  0.78520339  0.04458042    -0.27200
C326        C  0.00772235  0.76122692  0.00944856     0.06400
C327        C  0.02342522  0.78144011  0.97245897     0.26000
C328        C  0.02373106  0.82489587  0.97076962    -0.11700
C329        C  0.00817148  0.84882575  0.00575461    -0.25600
C330        C  0.99257174  0.82875796  0.04287601     0.36800
C331        C  0.00643086  0.71518658  0.01065377     0.06400
F332        F  0.03710301  0.75906675  0.93731558    -0.19400
H333        H  0.03539751  0.83999112  0.94178137     0.16200
F334        F  0.97759157  0.85135208  0.07724460    -0.23100
H335        H  0.97996924  0.77013031  0.07329553     0.18000
C336        C  0.04294832  0.69155923  0.00589582     0.26000
C337        C  0.04106147  0.64809001  0.00394732    -0.11700
C338        C  0.00271938  0.62726171  0.00659125    -0.25700
C339        C  0.96622761  0.65111156  0.01245441     0.36900
C340        C  0.96825682  0.69462307  0.01464314    -0.27300
F341        F  0.08049839  0.71058533  0.00337374    -0.19400
H342        H  0.06973615  0.63075723  0.99999434     0.16200
F343        F  0.92852445  0.63260851  0.01604683    -0.23100
H344        H  0.93981106  0.71239397  0.01843286     0.18100
C345        C  0.96002760  0.31001820  0.00643538    -0.27200
C346        C  0.99753143  0.28805070  0.00211846     0.06400
C347        C  0.03476093  0.31015645  0.99744126     0.26000
C348        C  0.03445104  0.35364165  0.99733531    -0.11700
C349        C  0.99700493  0.37598752  0.00186578    -0.25600
C350        C  0.95963169  0.35361033  0.00657742     0.36800
C351        C  0.99773192  0.24206371  0.00168442     0.06400
F352        F  0.07130830  0.28960200  0.99192310    -0.19400
H353        H  0.06365712  0.36980760  0.99334320     0.16200
F354        F  0.92276740  0.37363673  0.01183402    -0.23100
H355        H  0.93106797  0.29331238  0.01011526     0.18000
C356        C  0.01994889  0.21990880  0.03411162     0.26000
C357        C  0.02134254  0.17639777  0.03231652    -0.11700
C358        C  0.00065342  0.15451509  0.99818682    -0.25700
C359        C  0.97807623  0.17663755  0.96604723     0.36900
C360        C  0.97652202  0.22013231  0.96795032    -0.27300
F361        F  0.03980959  0.24039761  0.06772271    -0.19400
H362        H  0.03844117  0.15966460  0.05758032     0.16200
F363        F  0.95804493  0.15609467  0.93259970    -0.23100
H364        H  0.95940156  0.23680830  0.94265729     0.18100
loop_ 
_geom_bond_atom_site_label_1 
_geom_bond_atom_site_label_2 
_geom_bond_distance 
_geom_bond_site_symmetry_2 
_ccdc_geom_bond_type 
N1            C6   1.350   1_556  A
N1            C5   1.352   1_556  A
N1           H33   1.041       .  S
N2            C9   1.352       .  A
N2           C10   1.351       .  A
N3            C8   1.354   1_556  A
N3            C7   1.353   1_556  A
N3           H34   1.040       .  S
N4           C11   1.351   1_554  A
N4           C12   1.350   1_554  A
C5           C13   1.387       .  A
C5           C21   1.412   1_654  A
C6           C22   1.410   1_544  A
C6           C14   1.387       .  A
C7           C15   1.388       .  A
C7           C24   1.418   1_564  A
C8           C23   1.415       .  A
C8           C16   1.386       .  A
C9           C21   1.411       .  A
C9           C17   1.385       .  A
C10          C24   1.415       .  A
C10          C18   1.387       .  A
C11          C19   1.386       .  A
C11          C22   1.411       .  A
C12          C20   1.386       .  A
C12          C23   1.411   1_656  A
C13          C14   1.374       .  A
C13          H25   1.082       .  S
C14          H26   1.082       .  S
C15          C16   1.375       .  A
C15          H27   1.082       .  S
C16          H28   1.082       .  S
C17          C18   1.374       .  A
C17          H29   1.082       .  S
C18          H30   1.082       .  S
C19          C20   1.373       .  A
C19          H31   1.082       .  S
C20          H32   1.082       .  S
C21         C358   1.485       .  S
C22         C318   1.479       .  S
C23         C329   1.486       .  S
C24         C298   1.490       .  S
N35          C40   1.352       .  A
N35          C39   1.352       .  A
N35          H67   1.036       .  S
N36          C43   1.350       .  A
N36          C44   1.349       .  A
N37          C42   1.353       .  A
N37          C41   1.354       .  A
N37          H68   1.036       .  S
N38          C45   1.351       .  A
N38          C46   1.351       .  A
C39          C47   1.386       .  A
C39          C55   1.411   1_545  A
C40          C56   1.411       .  A
C40          C48   1.387       .  A
C41          C49   1.388       .  A
C41          C58   1.416   1_455  A
C42          C57   1.414       .  A
C42          C50   1.386       .  A
C43          C55   1.408       .  A
C43          C51   1.385       .  A
C44          C58   1.412       .  A
C44          C52   1.387       .  A
C45          C53   1.385       .  A
C45          C56   1.411   1_455  A
C46          C54   1.387       .  A
C46          C57   1.413   1_545  A
C47          C48   1.375       .  A
C47          H59   1.082       .  S
C48          H60   1.082       .  S
C49          C50   1.376       .  A
C49          H61   1.082       .  S
C50          H62   1.082       .  S
C51          C52   1.374       .  A
C51          H63   1.082       .  S
C52          H64   1.082       .  S
C53          C54   1.374       .  A
C53          H65   1.082       .  S
C54          H66   1.082       .  S
C55         C238   1.479       .  S
C56         C269   1.481       .  S
C57         C209   1.487       .  S
C58         C249   1.489       .  S
O69         Ni77   1.920   1_556  S
O69          C79   1.282   1_556  A
O70         Ni77   1.918       .  S
O70          C80   1.282   1_655  A
O71         Ni77   1.916   1_556  S
O71          C81   1.282   1_655  A
O72         Ni77   1.913       .  S
O72          C82   1.281       .  A
O73         Ni78   1.917       .  S
O73          C82   1.282   1_455  A
O74         Ni78   1.920   1_556  S
O74          C81   1.282       .  A
O75         Ni78   1.918       .  S
O75          C80   1.282       .  A
O76         Ni78   1.915       .  S
O76          C79   1.282   1_455  A
Ni77        Ni78   2.385   1_655  S
C79         C349   1.485       .  S
C80         C338   1.486       .  S
C81         C178   1.482       .  S
C82         C198   1.483       .  S
O83         Ni91   1.921       .  S
O83          C93   1.282       .  A
O84         Ni91   1.917       .  S
O84          C94   1.282       .  A
O85         Ni91   1.919       .  S
O85          C95   1.281       .  A
O86         Ni91   1.920       .  S
O86          C96   1.282       .  A
O87         Ni92   1.916       .  S
O87          C96   1.281   1_455  A
O88         Ni92   1.911       .  S
O88          C95   1.280   1_455  A
O89         Ni92   1.915       .  S
O89          C94   1.281   1_455  A
O90         Ni92   1.913       .  S
O90          C93   1.281   1_455  A
Ni91        Ni92   2.387   1_655  S
C93         C278   1.483       .  S
C94         C258   1.485       .  S
C95         C189   1.468       .  S
C96         C169   1.482       .  S
O97        Ni105   1.914       .  S
O97         C107   1.281   1_556  A
O98        Ni105   1.916       .  S
O98         C108   1.282   1_545  A
O99        Ni105   1.918   1_554  S
O99         C109   1.281       .  A
O100       Ni105   1.917       .  S
O100        C110   1.281   1_545  A
O101       Ni106   1.917       .  S
O101        C110   1.282       .  A
O102       Ni106   1.917   1_554  S
O102        C109   1.281   1_565  A
O103       Ni106   1.922       .  S
O103        C108   1.282       .  A
O104       Ni106   1.917   1_554  S
O104        C107   1.282   1_565  A
Ni105      Ni106   2.385   1_545  S
C107        C309   1.482       .  S
C108        C289   1.487   1_565  S
C109        C149   1.478       .  S
C110        C129   1.482       .  S
O111       Ni119   1.915       .  S
O111        C121   1.281       .  A
O112       Ni119   1.914       .  S
O112        C122   1.281   1_545  A
O113       Ni119   1.912       .  S
O113        C123   1.281   1_545  A
O114       Ni119   1.916       .  S
O114        C124   1.281       .  A
O115       Ni120   1.919       .  S
O115        C124   1.283   1_565  A
O116       Ni120   1.920       .  S
O116        C123   1.282       .  A
O117       Ni120   1.921       .  S
O117        C122   1.282       .  A
O118       Ni120   1.917       .  S
O118        C121   1.282   1_565  A
Ni119      Ni120   2.385   1_545  S
C121        C229   1.483       .  S
C122        C218   1.486       .  S
C123        C138   1.479       .  S
C124        C158   1.484       .  S
C125        C126   1.405   1_545  A
C125        C130   1.398       .  A
C125        H135   1.083       .  S
C126        C127   1.407       .  A
C126        C131   1.485       .  S
C127        C128   1.398       .  A
C127        F132   1.357       .  S
C128        C129   1.406       .  A
C128        H133   1.083       .  S
C129        C130   1.409   1_565  A
C130        F134   1.358       .  S
C131        C136   1.407   1_565  A
C131        C140   1.406       .  A
C136        C137   1.395       .  A
C136        F141   1.357       .  S
C137        C138   1.404   1_545  A
C137        H142   1.083       .  S
C138        C139   1.408       .  A
C139        C140   1.401       .  A
C139        F143   1.358       .  S
C140        H144   1.083       .  S
C145        C146   1.406   1_565  A
C145        C150   1.398       .  A
C145        H155   1.083       .  S
C146        C147   1.408       .  A
C146        C151   1.488       .  S
C147        C148   1.399       .  A
C147        F152   1.357       .  S
C148        C149   1.404       .  A
C148        H153   1.083       .  S
C149        C150   1.406   1_545  A
C150        F154   1.358       .  S
C151        C156   1.408   1_545  A
C151        C160   1.405       .  A
C156        C157   1.397       .  A
C156        F161   1.357       .  S
C157        C158   1.405   1_565  A
C157        H162   1.083       .  S
C158        C159   1.410       .  A
C159        C160   1.400       .  A
C159        F163   1.357       .  S
C160        H164   1.083       .  S
C165        C166   1.405   1_655  A
C165        C170   1.397       .  A
C165        H175   1.083       .  S
C166        C167   1.407       .  A
C166        C171   1.487       .  S
C167        C168   1.400       .  A
C167        F172   1.357       .  S
C168        C169   1.406   1_455  A
C168        H173   1.083       .  S
C169        C170   1.407       .  A
C170        F174   1.357       .  S
C171        C176   1.407   1_455  A
C171        C180   1.406       .  A
C176        C177   1.396       .  A
C176        F181   1.357       .  S
C177        C178   1.404   1_655  A
C177        H182   1.083       .  S
C178        C179   1.409       .  A
C179        C180   1.401       .  A
C179        F183   1.357       .  S
C180        H184   1.083       .  S
C185        C186   1.407       .  A
C185        C190   1.400       .  A
C185        H195   1.083       .  S
C186        C187   1.408   1_655  A
C186        C191   1.484       .  S
C187        C188   1.395       .  A
C187        F192   1.357       .  S
C188        C189   1.401   1_455  A
C188        H193   1.084       .  S
C189        C190   1.404       .  A
C190        F194   1.358       .  S
C191        C196   1.406       .  A
C191        C200   1.405   1_655  A
C196        C197   1.398       .  A
C196        F201   1.357       .  S
C197        C198   1.407       .  A
C197        H202   1.083       .  S
C198        C199   1.409   1_655  A
C199        C200   1.397       .  A
C199        F203   1.357       .  S
C200        H204   1.083       .  S
C205        C206   1.406   1_545  A
C205        C210   1.397       .  A
C205        H215   1.083       .  S
C206        C207   1.408       .  A
C206        C211   1.486       .  S
C207        C208   1.400       .  A
C207        F212   1.357       .  S
C208        C209   1.404       .  A
C208        H213   1.083       .  S
C209        C210   1.404   1_565  A
C210        F214   1.357       .  S
C211        C216   1.407       .  A
C211        C220   1.403   1_565  A
C216        C217   1.400       .  A
C216        F221   1.357       .  S
C217        C218   1.407       .  A
C217        H222   1.083       .  S
C218        C219   1.410   1_565  A
C219        C220   1.397       .  A
C219        F223   1.357       .  S
C220        H224   1.083       .  S
C225        C226   1.403       .  A
C225        C230   1.398       .  A
C225        H235   1.083       .  S
C226        C227   1.406   1_545  A
C226        C231   1.482   1_545  S
C227        C228   1.397       .  A
C227        F232   1.357       .  S
C228        C229   1.406   1_565  A
C228        H233   1.083       .  S
C229        C230   1.411       .  A
C230        F234   1.357       .  S
C231        C236   1.407       .  A
C231        C240   1.407   1_565  A
C236        C237   1.395       .  A
C236        F241   1.357       .  S
C237        C238   1.400       .  A
C237        H242   1.083       .  S
C238        C239   1.403   1_565  A
C239        C240   1.399       .  A
C239        F243   1.357       .  S
C240        H244   1.083       .  S
C245        C246   1.406       .  A
C245        C250   1.399       .  A
C245        H255   1.083       .  S
C246        C247   1.408   1_655  A
C246        C251   1.485       .  S
C247        C248   1.396       .  A
C247        F252   1.357       .  S
C248        C249   1.402   1_455  A
C248        H253   1.083       .  S
C249        C250   1.407       .  A
C250        F254   1.358       .  S
C251        C256   1.407       .  A
C251        C260   1.404   1_655  A
C256        C257   1.398       .  A
C256        F261   1.357       .  S
C257        C258   1.407       .  A
C257        H262   1.083       .  S
C258        C259   1.410   1_655  A
C259        C260   1.397       .  A
C259        F263   1.357       .  S
C260        H264   1.083       .  S
C265        C266   1.406   1_455  A
C265        C270   1.398       .  A
C265        H275   1.083       .  S
C266        C267   1.407       .  A
C266        C271   1.481       .  S
C267        C268   1.397       .  A
C267        F272   1.357       .  S
C268        C269   1.401       .  A
C268        H273   1.083       .  S
C269        C270   1.403   1_655  A
C270        F274   1.357       .  S
C271        C276   1.404   1_655  A
C271        C280   1.405       .  A
C276        C277   1.396       .  A
C276        F281   1.358       .  S
C277        C278   1.406   1_455  A
C277        H282   1.083       .  S
C278        C279   1.410       .  A
C279        C280   1.400       .  A
C279        F283   1.357       .  S
C280        H284   1.083       .  S
C285        C286   1.404   1_565  A
C285        C290   1.400       .  A
C285        H295   1.083       .  S
C286        C287   1.405       .  A
C286        C291   1.483       .  S
C287        C288   1.397       .  A
C287        F292   1.358       .  S
C288        C289   1.408       .  A
C288        H293   1.083       .  S
C289        C290   1.411   1_545  A
C290        F294   1.357   1_556  S
C291        C296   1.407   1_545  A
C291        C300   1.405   1_556  A
C296        C297   1.399       .  A
C296        F301   1.357       .  S
C297        C298   1.405   1_565  A
C297        H302   1.083       .  S
C298        C299   1.406   1_556  A
C299        C300   1.398       .  A
C299        F303   1.358       .  S
C300        H304   1.083       .  S
C305        C306   1.403       .  A
C305        C310   1.398       .  A
C305        H315   1.083       .  S
C306        C307   1.405   1_546  A
C306        C311   1.480       .  S
C307        C308   1.396       .  A
C307        F312   1.358       .  S
C308        C309   1.406   1_565  A
C308        H313   1.083       .  S
C309        C310   1.410   1_554  A
C310        F314   1.357       .  S
C311        C316   1.408       .  A
C311        C320   1.405   1_546  A
C316        C317   1.397       .  A
C316        F321   1.358       .  S
C317        C318   1.402   1_545  A
C317        H322   1.083       .  S
C318        C319   1.402   1_556  A
C319        C320   1.396       .  A
C319        F323   1.357       .  S
C320        H324   1.083       .  S
C325        C326   1.405   1_655  A
C325        C330   1.400       .  A
C325        H335   1.083       .  S
C326        C327   1.406   1_554  A
C326        C331   1.480       .  S
C327        C328   1.397       .  A
C327        F332   1.357       .  S
C328        C329   1.401   1_556  A
C328        H333   1.083       .  S
C329        C330   1.406   1_455  A
C330        F334   1.357       .  S
C331        C336   1.404       .  A
C331        C340   1.402   1_455  A
C336        C337   1.398       .  A
C336        F341   1.358       .  S
C337        C338   1.407       .  A
C337        H342   1.083   1_554  S
C338        C339   1.412   1_455  A
C339        C340   1.400       .  A
C339        F343   1.357       .  S
C340        H344   1.083       .  S
C345        C346   1.402       .  A
C345        C350   1.400       .  A
C345        H355   1.083       .  S
C346        C347   1.403   1_654  A
C346        C351   1.477       .  S
C347        C348   1.397       .  A
C347        F352   1.358       .  S
C348        C349   1.407   1_456  A
C348        H353   1.083       .  S
C349        C350   1.411       .  A
C350        F354   1.357       .  S
C351        C356   1.406   1_655  A
C351        C360   1.403   1_554  A
C356        C357   1.398       .  A
C356        F361   1.358       .  S
C357        C358   1.403   1_554  A
C357        H362   1.083       .  S
C358        C359   1.405   1_455  A
C359        C360   1.398       .  A
C359        F363   1.357       .  S
C360        H364   1.083       .  S
