geometry optimzed in LAMMPS
_audit_creation_date              2020-11-30 
_audit_creation_method            'lammps2cif' 
_symmetry_space_group_name_H-M    'P1' 
_symmetry_Int_Tables_number       1 
_symmetry_cell_setting            triclinic 
loop_ 
_symmetry_equiv_pos_as_xyz 
  x,y,z 
_cell_length_a                    25.3812849 
_cell_length_b                    25.72582090391973 
_cell_length_c                    25.32139396698552 
_cell_angle_alpha                 89.4356128407909 
_cell_angle_beta                  89.37230828989863 
_cell_angle_gamma                 90.70073741438934 
loop_ 
_atom_site_label 
_atom_site_type_symbol 
_atom_site_fract_x 
_atom_site_fract_y 
_atom_site_fract_z 
_atom_site_charge 
C1          C  0.58088232  0.29531055  0.06834764     0.82000
N2          N  0.56263361  0.26478769  0.02855288    -0.76300
C3          C  0.51316811  0.24378417  0.03131030     0.84400
N4          N  0.48205059  0.25389357  0.07401371    -0.76300
C5          C  0.49987931  0.28455845  0.11340536     0.84500
N6          N  0.54922142  0.30514443  0.11059425    -0.78000
C7          C  0.24323637  0.05800941  0.63440926     0.82000
N8          N  0.21174370  0.01889780  0.61557359    -0.76300
C9          C  0.18946212  0.02322055  0.56684086     0.84400
N10         N  0.19921985  0.06680243  0.53732044    -0.76300
C11         C  0.23057311  0.10547647  0.55567575     0.84500
N12         N  0.25250683  0.10105949  0.60403637    -0.78000
C13         C  0.01927259  0.62823963  0.29220706     0.82000
N14         N  0.98026194  0.60993588  0.26037658    -0.76300
C15         C  0.98274746  0.56094418  0.24061312     0.84400
N16         N  0.02420583  0.53044812  0.25329204    -0.76300
C17         C  0.06270385  0.54833436  0.28522533     0.84500
N18         N  0.06028164  0.59712380  0.30457813    -0.78000
C19         C  0.32954944  0.33136825  0.31005788     0.04900
C20         C  0.32176004  0.29609565  0.35202233    -0.11200
C21         C  0.27945160  0.30232174  0.38734765     0.02400
C22         C  0.24510584  0.34406562  0.38084186    -0.09800
C23         C  0.25287832  0.37938506  0.33891730     0.04900
C24         C  0.29519616  0.37311826  0.30366734    -0.09200
H25         H  0.34768972  0.26316387  0.35635498     0.10500
H26         H  0.21169965  0.34827822  0.40746833     0.08000
H27         H  0.30052240  0.39980224  0.27055291     0.07900
O28         O  0.48257766  0.57409114  0.63884323    -0.80000
C29         C  0.69434981  0.63990807  0.60261121     0.99300
O30         O  0.67867690  0.59454252  0.61619013    -0.69100
O31         O  0.62205970  0.59311114  0.70338809    -0.72700
Al32       Al  0.60944578  0.56605929  0.63659422     1.49000
C33         C  0.58646876  0.60433277  0.73610478     0.94600
O34         O  0.54186101  0.70473519  0.66756559    -0.79000
O35         O  0.53077707  0.64774570  0.52480275    -0.72500
Al36       Al  0.51551903  0.63883464  0.65141691     1.90100
O37         O  0.57310000  0.72546957  0.58869028    -0.71600
O38         O  0.62288706  0.59870503  0.52007932    -0.71400
O39         O  0.66188066  0.67337822  0.58778860    -0.77100
O40         O  0.60008110  0.53307629  0.57177081    -0.75300
O41         O  0.57361492  0.62139559  0.61613879    -1.11400
O42         O  0.54843654  0.52528584  0.66293508    -0.70600
C43         C  0.49935756  0.53160086  0.65663149     1.00100
C44         C  0.55711935  0.73857407  0.63446771     0.96500
Al45       Al  0.59508419  0.65831282  0.55987955     1.55600
O46         O  0.54087507  0.61679764  0.72061796    -0.75200
C47         C  0.61785413  0.54999850  0.52833913     1.00700
C48         C  0.48693167  0.66346694  0.54140422     0.95500
O49         O  0.47771893  0.66635113  0.59058935    -0.80600
C50         C  0.17129727  0.90214068  0.12547724     0.82000
N51         N  0.20275159  0.93694126  0.09786738    -0.76300
C52         C  0.22176424  0.92416920  0.04884209     0.84400
N53         N  0.20951137  0.87696518  0.02853968    -0.76300
C54         C  0.17865765  0.84272611  0.05582867     0.84500
N55         N  0.15952640  0.85538853  0.10386924    -0.78000
C56         C  0.38557705  0.35588578  0.78488962     0.82000
N57         N  0.34189742  0.38450927  0.79354716    -0.76300
C58         C  0.33835790  0.43310397  0.77344717     0.84400
N59         N  0.37870754  0.45377734  0.74454852    -0.76300
C60         C  0.42307824  0.42599481  0.73533195     0.84500
N61         N  0.42655602  0.37676642  0.75579249    -0.78000
C62         C  0.82875230  0.71118532  0.58646286     0.82000
N63         N  0.85363032  0.69316543  0.63000242    -0.76300
C64         C  0.90323044  0.70879621  0.64082682     0.84400
N65         N  0.92871546  0.74263376  0.60803985    -0.76300
C66         C  0.90516289  0.76111931  0.56392932     0.84500
N67         N  0.85462801  0.74547978  0.55297519    -0.78000
C68         C  0.10831196  0.64308021  0.90963643     0.04900
C69         C  0.14372440  0.60455133  0.89461936    -0.11200
C70         C  0.13463457  0.57568145  0.84899265     0.02400
C71         C  0.08985113  0.58483948  0.81874877    -0.09800
C72         C  0.05442176  0.62336719  0.83381321     0.04900
C73         C  0.06346354  0.65230154  0.87941264    -0.09200
H74         H  0.17950754  0.59882050  0.91686843     0.10500
H75         H  0.08392760  0.56382336  0.78231653     0.08000
H76         H  0.03722441  0.68366185  0.88977367     0.07900
O77         O  0.37260090  0.14065853  0.97302527    -0.80000
C78         C  0.31654867  0.08921343  0.76379911     0.99300
O79         O  0.36189773  0.10464212  0.77845837    -0.69100
O80         O  0.36304371  0.19451446  0.82712527    -0.72700
Al81       Al  0.38842640  0.12898177  0.84672071     1.49000
C82         C  0.34941913  0.22884543  0.85929040     0.94600
O83         O  0.24437820  0.16324118  0.90609542    -0.79000
O84         O  0.30099758  0.02416288  0.93581821    -0.72500
Al85       Al  0.30949455  0.15020622  0.93662069     1.90100
O86         O  0.22522907  0.08272467  0.88415123    -0.71600
O87         O  0.35539442  0.01306414  0.84430675    -0.71400
O88         O  0.28212288  0.07564601  0.79741441    -0.77100
O89         O  0.42119787  0.06572042  0.86226997    -0.75300
O90         O  0.33046982  0.11106157  0.88313900    -1.11400
O91         O  0.42665275  0.15869455  0.90702164    -0.70600
C92         C  0.41673935  0.15667590  0.95636338     1.00100
C93         C  0.21103309  0.12881734  0.89429303     0.96500
Al94       Al  0.29410634  0.05362036  0.86701896     1.55600
O95         O  0.33341875  0.21627183  0.90539843    -0.75200
C96         C  0.40457324  0.02192194  0.84799826     1.00700
C97         C  0.28271461  0.04476853  0.97714290     0.95500
O98         O  0.27975713  0.09378692  0.97986535    -0.80600
C99         C  0.08321144  0.20154702  0.92286456     0.82000
N100        N  0.06416012  0.23158351  0.96266388    -0.76300
C101        C  0.01570491  0.25331207  0.95885643     0.84400
N102        N  0.98644656  0.24449597  0.91504413    -0.76300
C103        C  0.00525337  0.21446531  0.87555471     0.84500
N104        N  0.05347955  0.19301855  0.87950980    -0.78000
C105        C  0.75089616  0.43190513  0.36344594     0.82000
N106        N  0.72292565  0.47325430  0.38154950    -0.76300
C107        C  0.70184899  0.47225328  0.43129569     0.84400
N108        N  0.70927060  0.42974531  0.46267868    -0.76300
C109        C  0.73733324  0.38886065  0.44487491     0.84500
N110        N  0.75799834  0.38997579  0.39540282    -0.78000
C111        C  0.52204992  0.86278393  0.71032597     0.82000
N112        N  0.48136374  0.87886520  0.74173026    -0.76300
C113        C  0.48307402  0.92675859  0.76430465     0.84400
N114        N  0.52550909  0.95843163  0.75473560    -0.76300
C115        C  0.56571671  0.94273416  0.72329336     0.84500
N116        N  0.56394256  0.89506449  0.70114489    -0.78000
C117        C  0.83679268  0.16193184  0.68293209     0.04900
C118        C  0.82808635  0.19653451  0.64102322    -0.11200
C119        C  0.78364115  0.19037640  0.60929941     0.02400
C120        C  0.74814973  0.14916229  0.61916876    -0.09800
C121        C  0.75695575  0.11437531  0.66102997     0.04900
C122        C  0.80137973  0.12070495  0.69276502    -0.09200
H123        H  0.85478494  0.22923897  0.63430470     0.10500
H124        H  0.71307637  0.14509393  0.59540644     0.08000
H125        H  0.80744443  0.09466892  0.72604198     0.07900
O126        O  0.87448049  0.35363647  0.02083885    -0.80000
C127        C  0.81794787  0.39303130  0.23328614     0.99300
O128        O  0.86308604  0.37843299  0.21734518    -0.69100
O129        O  0.86111655  0.29166289  0.16311582    -0.72700
Al130      Al  0.88930532  0.35767156  0.14754108     1.49000
C131        C  0.84644339  0.25947559  0.12907844     0.94600
O132        O  0.74396621  0.32923461  0.08724115    -0.79000
O133        O  0.80996430  0.46798489  0.06877555    -0.72500
Al134      Al  0.81035626  0.34315244  0.05722797     1.90100
O135        O  0.72819175  0.40859981  0.11375945    -0.71600
O136        O  0.85973219  0.47191672  0.16020440    -0.71400
O137        O  0.78337482  0.40652834  0.20087706    -0.77100
O138        O  0.92440830  0.42172992  0.13555768    -0.75300
O139        O  0.83236833  0.37800715  0.11320478    -1.11400
O140        O  0.92689181  0.33130101  0.08527099    -0.70600
C141        C  0.91775467  0.33615045  0.03623277     1.00100
C142        C  0.71189138  0.36364969  0.10078187     0.96500
Al143      Al  0.79810099  0.43422049  0.13391387     1.55600
O144        O  0.83100269  0.27484403  0.08403957    -0.75200
C145        C  0.90865417  0.46392143  0.15436624     1.00700
C146        C  0.79119720  0.45202962  0.02609012     0.95500
O147        O  0.78402676  0.40372642  0.01863127    -0.80600
C148        C  0.88354017  0.12983443  0.19521656     0.82000
N149        N  0.92384203  0.11128454  0.22518369    -0.76300
C150        C  0.92226385  0.06127426  0.24366230     0.84400
N151        N  0.88046639  0.03022871  0.23154427    -0.76300
C152        C  0.84079691  0.04840445  0.20153914     0.84500
N153        N  0.84227347  0.09806199  0.18354181    -0.78000
C154        C  0.31483920  0.79346024  0.43240097     0.82000
N155        N  0.33427312  0.76268492  0.47180366    -0.76300
C156        C  0.38451620  0.74459582  0.46838440     0.84400
N157        N  0.41486473  0.75780528  0.42566313    -0.76300
C158        C  0.39579306  0.78850952  0.38683556     0.84500
N159        N  0.34595698  0.80621580  0.39016015    -0.78000
C160        C  0.65420985  0.56680763  0.86499764     0.82000
N161        N  0.64383047  0.60687507  0.89788632    -0.76300
C162        C  0.66410478  0.60736761  0.94709158     0.84400
N163        N  0.69497261  0.56798213  0.96350918    -0.76300
C164        C  0.70559110  0.52753102  0.93110458     0.84500
N165        N  0.68491135  0.52691280  0.88179532    -0.78000
C166        C  0.61680302  0.79912628  0.11649304     0.04900
C167        C  0.57396385  0.79556943  0.15170002    -0.11200
C168        C  0.56715191  0.83351173  0.19036820     0.02400
C169        C  0.60303226  0.87508255  0.19370952    -0.09800
C170        C  0.64590323  0.87854790  0.15854918     0.04900
C171        C  0.65272840  0.84064554  0.11986848    -0.09200
H172        H  0.54669320  0.76287168  0.14972238     0.10500
H173        H  0.59835891  0.90387494  0.22436145     0.08000
H174        H  0.68644418  0.84287331  0.09321136     0.07900
O175        O  0.97802936  0.91839047  0.34408254    -0.80000
C176        C  0.18494105  0.86109170  0.39850871     0.99300
O177        O  0.17089321  0.90563401  0.38227998    -0.69100
O178        O  0.12332951  0.90607789  0.29064244    -0.72700
Al179      Al  0.10395168  0.93234167  0.35734305     1.49000
C180        C  0.09191265  0.88983437  0.25630635     0.94600
O181        O  0.04151253  0.78927950  0.32509225    -0.79000
O182        O  0.01357804  0.84854995  0.46516554    -0.72500
Al183      Al  0.01301739  0.85500903  0.33662317     1.90100
O184        O  0.06345079  0.77212967  0.40703749    -0.71600
O185        O  0.10634380  0.90086440  0.47549472    -0.71400
O186        O  0.15121097  0.82728913  0.41243272    -0.77100
O187        O  0.08952478  0.96581267  0.42186272    -0.75300
O188        O  0.06656462  0.87573961  0.37623750    -1.11400
O189        O  0.04489919  0.97078249  0.32681522    -0.70600
C190        C  0.99558615  0.96180696  0.32838793     1.00100
C191        C  0.05236598  0.75698523  0.36083667     0.96500
Al192      Al  0.08207722  0.84036713  0.43509434     1.55600
O193        O  0.04548134  0.87554570  0.26933223    -0.75200
C194        C  0.10436669  0.94941655  0.46623556     1.00700
C195        C  0.97213832  0.83071133  0.44433423     0.95500
O196        O  0.96902553  0.82823908  0.39451354    -0.80600
C197        C  0.65293457  0.64946647  0.98187363    -0.16700
C198        C  0.64377488  0.68438634  0.01175201     0.07300
C199        C  0.63346553  0.72479444  0.04738690     0.09200
C200        C  0.62530934  0.75894770  0.07846045    -0.17600
C201        C  0.42832032  0.80178827  0.34206945    -0.16700
C202        C  0.45706705  0.81163734  0.30513118     0.07300
C203        C  0.49283261  0.82131301  0.26319731     0.09200
C204        C  0.52553027  0.82783715  0.22893264    -0.17600
C205        C  0.25931757  0.81044030  0.43362881    -0.14700
C206        C  0.24144379  0.84826161  0.40122396    -0.29800
H207        H  0.23227689  0.79064257  0.46087012     0.14400
H208        H  0.26879411  0.87033904  0.37620330     0.14900
C209        C  0.68480509  0.91902726  0.16436182    -0.16700
C210        C  0.71904354  0.95101601  0.17088281     0.07300
C211        C  0.76061261  0.98636833  0.18023384     0.09200
C212        C  0.79697901  0.01520185  0.18944015    -0.17600
C213        C  0.96607844  0.03913343  0.27511269    -0.14700
C214        C  0.95613611  0.99880526  0.30827424    -0.29800
H215        H  0.00621163  0.05259790  0.26768455     0.16000
H216        H  0.91527570  0.98724278  0.31528039     0.14900
C217        C  0.88289818  0.18502337  0.17817884    -0.14700
C218        C  0.84873561  0.20339680  0.14203362    -0.29800
H219        H  0.91077294  0.21149168  0.19648894     0.14400
H220        H  0.82292583  0.17691560  0.12105340     0.14900
C221        C  0.73700853  0.48356382  0.95120540    -0.14700
C222        C  0.77296351  0.49209089  0.98877468    -0.29800
H223        H  0.72672238  0.44425772  0.93950947     0.14400
H224        H  0.78283979  0.53204221  0.99876300     0.14900
C225        C  0.71848888  0.07454494  0.67390098    -0.16700
C226        C  0.68512449  0.04273658  0.68598164     0.07300
C227        C  0.64474377  0.00697274  0.70034932     0.09200
C228        C  0.60918290  0.97732372  0.71171877    -0.17600
C229        C  0.77241892  0.22901641  0.56966986    -0.16700
C230        C  0.76328497  0.26397071  0.53922440     0.07300
C231        C  0.75317477  0.30689997  0.50591043     0.09200
C232        C  0.74533390  0.34432799  0.47824079    -0.17600
C233        C  0.76994395  0.43092378  0.30812572    -0.14700
C234        C  0.80519141  0.39605009  0.29021791    -0.29800
H235        H  0.75335134  0.45903066  0.28084330     0.14400
H236        H  0.82480475  0.36997068  0.31742776     0.14900
C237        C  0.87904596  0.17171238  0.71897998    -0.16700
C238        C  0.91140294  0.18160727  0.75194173     0.07300
C239        C  0.94600160  0.19397850  0.79325297     0.09200
C240        C  0.97358083  0.20406662  0.83025856    -0.17600
C241        C  0.99316945  0.28342510  0.00333029    -0.14700
C242        C  0.95404102  0.31717106  0.99481883    -0.29800
H243        H  0.00572843  0.27475926  0.04329145     0.14400
H244        H  0.94284566  0.32554695  0.95431660     0.14900
C245        C  0.15493713  0.14307829  0.89389010    -0.14700
C246        C  0.13720371  0.18126866  0.92540417    -0.29800
H247        H  0.12823625  0.12227579  0.86811017     0.14400
H248        H  0.16368075  0.19914836  0.95358371     0.14900
C249        C  0.44518436  0.98445953  0.83118468    -0.14700
C250        C  0.43757997  0.94673482  0.79543595    -0.29800
H251        H  0.48548951  0.99493148  0.84113355     0.14400
H252        H  0.39793617  0.93490528  0.78469715     0.14900
C253        C  0.92904972  0.68886292  0.68654003    -0.16700
C254        C  0.95231894  0.67188889  0.72391752     0.07300
C255        C  0.98292294  0.65272008  0.76560846     0.09200
C256        C  0.01312779  0.63793710  0.79860829    -0.17600
C257        C  0.93746317  0.79670316  0.52953142    -0.14700
C258        C  0.92908458  0.80747358  0.47813383    -0.29800
H259        H  0.97428719  0.80998663  0.54663772     0.14400
H260        H  0.89378523  0.79265482  0.45932824     0.14900
C261        C  0.29248673  0.46295146  0.78449499    -0.16700
C262        C  0.25398357  0.48687279  0.79691523     0.07300
C263        C  0.21004625  0.51506084  0.81419750     0.09200
C264        C  0.17429218  0.54102318  0.83014328    -0.17600
C265        C  0.35247101  0.28412265  0.84288711    -0.14700
C266        C  0.38671674  0.30163713  0.80515189    -0.29800
H267        H  0.32631739  0.31102853  0.86260012     0.14400
H268        H  0.41521732  0.27533074  0.78802836     0.14900
C269        C  0.12180613  0.67805435  0.95128806    -0.16700
C270        C  0.13496723  0.71155989  0.98136616     0.07300
C271        C  0.15111113  0.75470704  0.01110929     0.09200
C272        C  0.16438887  0.79401725  0.03286507    -0.17600
C273        C  0.15098182  0.91315784  0.17953625    -0.14700
C274        C  0.10957899  0.88590128  0.20050101    -0.29800
H275        H  0.17089048  0.94254789  0.20276827     0.14400
H276        H  0.08783746  0.85895224  0.17590312     0.14900
C277        C  0.25399285  0.95986416  0.01454795    -0.14700
C278        C  0.26043118  0.01148508  0.02088031    -0.29800
H279        H  0.26932093  0.94264867  0.97856708     0.14400
H280        H  0.24402620  0.03006495  0.05558886     0.14900
C281        C  0.75112021  0.65388502  0.60483703    -0.14700
C282        C  0.77305626  0.69481690  0.57798118    -0.29800
H283        H  0.77556460  0.62969771  0.62972390     0.14400
H284        H  0.74944029  0.71734136  0.55077379     0.14900
C285        C  0.59858822  0.60111654  0.79281311    -0.14700
C286        C  0.63576409  0.56818526  0.81007251    -0.29800
H287        H  0.57702239  0.62530827  0.82028675     0.14400
H288        H  0.65441816  0.54184999  0.78246448     0.14900
C289        C  0.55518052  0.79387709  0.65006586    -0.14700
C290        C  0.52191867  0.80947858  0.68882320    -0.29800
H291        H  0.58102686  0.82174895  0.62990454     0.14400
H292        H  0.49404405  0.78173743  0.70633077     0.14900
C293        C  0.40790982  0.71309905  0.51160456    -0.14700
C294        C  0.44969843  0.68276853  0.50137259    -0.29800
H295        H  0.39404601  0.71834817  0.55189862     0.14400
H296        H  0.46187223  0.67756927  0.46048201     0.14900
C297        C  0.63618186  0.51011145  0.49083667    -0.14700
C298        C  0.67291995  0.51761143  0.45271392    -0.29800
H299        H  0.62483800  0.47032283  0.50103592     0.14400
H300        H  0.68494332  0.55667020  0.44074940     0.14900
C301        C  0.46800608  0.45144150  0.70622396    -0.14700
C302        C  0.45921270  0.49256839  0.67411276    -0.29800
H303        H  0.50797016  0.43965413  0.71479372     0.14400
H304        H  0.41866557  0.50259758  0.66562575     0.14900
C305        C  0.21527243  0.41980819  0.32985371    -0.16700
C306        C  0.18208041  0.45167984  0.32083717     0.07300
C307        C  0.14159005  0.48688938  0.30911366     0.09200
C308        C  0.10597259  0.51553687  0.29845373    -0.17600
C309        C  0.01884497  0.68277830  0.31004652    -0.14700
C310        C  0.05070172  0.70102184  0.34825416    -0.29800
H311        H  0.99211657  0.70911418  0.29029427     0.14400
H312        H  0.07510659  0.67466080  0.37078414     0.14900
C313        C  0.94927101  0.50013209  0.17444014    -0.14700
C314        C  0.93956511  0.53921467  0.20803671    -0.29800
H315        H  0.98993295  0.48903830  0.16740779     0.14400
H316        H  0.89949811  0.55195976  0.21515365     0.14900
C317        C  0.24092572  0.15083443  0.52354143    -0.16700
C318        C  0.24977634  0.18790927  0.49517257     0.07300
C319        C  0.26034544  0.22977964  0.46000733     0.09200
C320        C  0.26932049  0.26387740  0.42803414    -0.17600
C321        C  0.30281007  0.08724982  0.70688950    -0.14700
C322        C  0.26381719  0.05558998  0.68916033    -0.29800
H323        H  0.32415067  0.11276224  0.67950772     0.14400
H324        H  0.24497065  0.02800491  0.71631878     0.14900
C325        C  0.15757751  0.97983269  0.54388486    -0.14700
C326        C  0.12391510  0.98905825  0.50392905    -0.29800
H327        H  0.16534366  0.94019484  0.55639378     0.14400
H328        H  0.11670685  0.02922833  0.49274442     0.14900
C329        C  0.46648958  0.29522675  0.15805422    -0.16700
C330        C  0.43768606  0.30421881  0.19494927     0.07300
C331        C  0.40240217  0.31448782  0.23696893     0.09200
C332        C  0.37039445  0.32267977  0.27133720    -0.17600
C333        C  0.63613147  0.31411910  0.06725541    -0.14700
C334        C  0.65494423  0.35092909  0.10001578    -0.29800
H335        H  0.66268324  0.29604314  0.03912762     0.14400
H336        H  0.62848866  0.37182196  0.12601336     0.14900
C337        C  0.49187515  0.21221307  0.98727667    -0.14700
C338        C  0.45308477  0.17712355  0.99669530    -0.29800
H339        H  0.50482055  0.22086372  0.94709215     0.14400
H340        H  0.44164288  0.16906685  0.03750456     0.14900
loop_ 
_geom_bond_atom_site_label_1 
_geom_bond_atom_site_label_2 
_geom_bond_distance 
_geom_bond_site_symmetry_2 
_ccdc_geom_bond_type 
C1            N2   1.365       .  A
C1            N6   1.359       .  A
C1          C333   1.478       .  S
N2            C3   1.362       .  A
C3            N4   1.361       .  A
C3          C337   1.488   1_554  S
N4            C5   1.356       .  A
C5            N6   1.355       .  A
C5          C329   1.436       .  S
C7            N8   1.370       .  A
C7           N12   1.359       .  A
C7          C322   1.488       .  S
N8            C9   1.367       .  A
C9           N10   1.360       .  A
C9          C325   1.497   1_545  S
N10          C11   1.355       .  A
C11          N12   1.355       .  A
C11         C317   1.436       .  S
C13          N14   1.366   1_455  A
C13          N18   1.358       .  A
C13         C309   1.478       .  S
N14          C15   1.363       .  A
C15          N16   1.360   1_655  A
C15         C314   1.486       .  S
N16          C17   1.354       .  A
C17          N18   1.354       .  A
C17         C308   1.434       .  S
C19         C332   1.440       .  S
C19          C20   1.401       .  A
C19          C24   1.401       .  A
C20          C21   1.402       .  A
C20          H25   1.085       .  S
C21         C320   1.440       .  S
C21          C22   1.401       .  A
C22          C23   1.401       .  A
C22          H26   1.085       .  S
C23         C305   1.439       .  S
C23          C24   1.401       .  A
C24          H27   1.085       .  S
O28          C43   1.259       .  A
O28         Al36   1.886       .  S
C29         C281   1.483       .  S
C29          O39   1.257       .  A
C29          O30   1.271       .  A
O30         Al32   1.958       .  S
O31          C33   1.257       .  A
O31         Al32   1.865       .  S
Al32         O40   1.871       .  S
Al32         O42   1.966       .  S
Al32         O41   1.775       .  S
C33         C285   1.474       .  S
C33          O46   1.270       .  A
O34          C44   1.257       .  A
O34         Al36   1.866       .  S
O35          C48   1.258       .  A
O35         Al45   1.885       .  S
Al36         O49   1.955       .  S
Al36         O46   1.955       .  S
Al36         O41   1.780       .  S
O37          C44   1.274       .  A
O37         Al45   1.967       .  S
O38          C47   1.273       .  A
O38         Al45   1.976       .  S
O39         Al45   1.881       .  S
O40          C47   1.256       .  A
O41         Al45   1.781       .  S
O42          C43   1.270       .  A
C43         C302   1.483       .  S
C44         C289   1.482       .  S
C47         C297   1.481       .  S
C48         C294   1.480       .  S
C48          O49   1.268       .  A
C50          N51   1.373       .  A
C50          N55   1.358       .  A
C50         C273   1.489       .  S
N51          C52   1.371       .  A
C52          N53   1.357       .  A
C52         C277   1.489       .  S
N53          C54   1.351       .  A
C54          N55   1.349       .  A
C54         C272   1.431       .  S
C56          N57   1.355       .  A
C56          N61   1.369       .  A
C56         C266   1.483       .  S
N57          C58   1.350       .  A
C58          N59   1.353       .  A
C58         C261   1.429       .  S
N59          C60   1.360       .  A
C60          N61   1.368       .  A
C60         C301   1.492       .  S
C62          N63   1.357       .  A
C62          N67   1.374       .  A
C62         C282   1.489       .  S
N63          C64   1.349       .  A
C64          N65   1.351       .  A
C64         C253   1.430       .  S
N65          C66   1.357       .  A
C66          N67   1.372       .  A
C66         C257   1.490       .  S
C68         C269   1.435       .  S
C68          C69   1.399       .  A
C68          C73   1.400       .  A
C69          C70   1.399       .  A
C69          H74   1.085       .  S
C70         C264   1.434       .  S
C70          C71   1.399       .  A
C71          C72   1.399       .  A
C71          H75   1.085       .  S
C72         C256   1.434       .  S
C72          C73   1.399       .  A
C73          H76   1.085       .  S
O77          C92   1.256       .  A
O77         Al85   1.874       .  S
C78         C321   1.488       .  S
C78          O88   1.257       .  A
C78          O79   1.273       .  A
O79         Al81   1.967       .  S
O80          C82   1.256       .  A
O80         Al81   1.876       .  S
Al81         O89   1.877       .  S
Al81         O91   1.973       .  S
Al81         O90   1.781       .  S
C82         C265   1.478       .  S
C82          O95   1.269       .  A
O83          C93   1.258       .  A
O83         Al85   1.865       .  S
O84          C97   1.264       .  A
O84         Al94   1.904       .  S
Al85         O98   1.949       .  S
Al85         O95   1.955       .  S
Al85         O90   1.776       .  S
O86          C93   1.271       .  A
O86         Al94   1.956       .  S
O87          C96   1.271       .  A
O87         Al94   1.967       .  S
O88         Al94   1.875       .  S
O89          C96   1.256       .  A
O90         Al94   1.786       .  S
O91          C92   1.272       .  A
C92         C338   1.480       .  S
C93         C245   1.475       .  S
C96         C249   1.482   1_545  S
C97         C278   1.495   1_556  S
C97          O98   1.267       .  A
C99         N100   1.364       .  A
C99         N104   1.357       .  A
C99         C246   1.474       .  S
N100        C101   1.361       .  A
C101        N102   1.361   1_455  A
C101        C241   1.486   1_456  S
N102        C103   1.356   1_655  A
C103        N104   1.353       .  A
C103        C240   1.433   1_455  S
C105        N106   1.366       .  A
C105        N110   1.357       .  A
C105        C233   1.477       .  S
N106        C107   1.363       .  A
C107        N108   1.362       .  A
C107        C298   1.490       .  S
N108        C109   1.356       .  A
C109        N110   1.353       .  A
C109        C232   1.435       .  S
C111        N112   1.367       .  A
C111        N116   1.358       .  A
C111        C290   1.480       .  S
N112        C113   1.364       .  A
C113        N114   1.361       .  A
C113        C250   1.490       .  S
N114        C115   1.355       .  A
C115        N116   1.354       .  A
C115        C228   1.435       .  S
C117        C237   1.437       .  S
C117        C118   1.400       .  A
C117        C122   1.400       .  A
C118        C119   1.400       .  A
C118        H123   1.085       .  S
C119        C229   1.439       .  S
C119        C120   1.402       .  A
C120        C121   1.402       .  A
C120        H124   1.085       .  S
C121        C225   1.439       .  S
C121        C122   1.401       .  A
C122        H125   1.085       .  S
O126        C141   1.256       .  A
O126       Al134   1.877       .  S
C127        C234   1.477       .  S
C127        O137   1.258       .  A
C127        O128   1.273       .  A
O128       Al130   1.963       .  S
O129        C131   1.257       .  A
O129       Al130   1.871       .  S
Al130       O138   1.884       .  S
Al130       O140   1.965       .  S
Al130       O139   1.776       .  S
C131        C218   1.478       .  S
C131        O144   1.271       .  A
O132        C142   1.258       .  A
O132       Al134   1.870       .  S
O133        C146   1.257       .  A
O133       Al143   1.876       .  S
Al134       O147   1.960       .  S
Al134       O144   1.957       .  S
Al134       O139   1.776       .  S
O135        C142   1.271       .  A
O135       Al143   1.960       .  S
O136        C145   1.268       .  A
O136       Al143   1.957       .  S
O137       Al143   1.865       .  S
O138        C145   1.258       .  A
O139       Al143   1.777       .  S
O140        C141   1.271       .  A
C141        C242   1.479   1_554  S
C142        C334   1.478       .  S
C145        C313   1.479       .  S
C146        C222   1.473   1_554  S
C146        O147   1.270       .  A
C148        N149   1.368       .  A
C148        N153   1.358       .  A
C148        C217   1.480       .  S
N149        C150   1.365       .  A
C150        N151   1.360       .  A
C150        C213   1.490       .  S
N151        C152   1.353       .  A
C152        N153   1.352       .  A
C152        C212   1.432       .  S
C154        N155   1.368       .  A
C154        N159   1.358       .  A
C154        C205   1.481       .  S
N155        C156   1.365       .  A
C156        N157   1.359       .  A
C156        C293   1.488       .  S
N157        C158   1.353       .  A
C158        N159   1.352       .  A
C158        C201   1.431       .  S
C160        N161   1.358       .  A
C160        N165   1.364       .  A
C160        C286   1.473       .  S
N161        C162   1.353       .  A
C162        N163   1.353       .  A
C162        C197   1.432       .  S
N163        C164   1.359       .  A
C164        N165   1.360       .  A
C164        C221   1.481       .  S
C166        C200   1.436       .  S
C166        C167   1.400       .  A
C166        C171   1.400       .  A
C167        C168   1.400       .  A
C167        H172   1.085       .  S
C168        C204   1.436       .  S
C168        C169   1.400       .  A
C169        C170   1.400       .  A
C169        H173   1.085       .  S
C170        C209   1.436       .  S
C170        C171   1.400       .  A
C171        H174   1.085       .  S
O175        C190   1.257       .  A
O175       Al183   1.876   1_655  S
C176        C206   1.478       .  S
C176        O186   1.258       .  A
C176        O177   1.270       .  A
O177       Al179   1.950       .  S
O178        C180   1.257       .  A
O178       Al179   1.888       .  S
Al179       O187   1.889       .  S
Al179       O189   1.967       .  S
Al179       O188   1.787       .  S
C180        C274   1.483       .  S
C180        O193   1.269       .  A
O181        C191   1.258       .  A
O181       Al183   1.872       .  S
O182        C195   1.265   1_455  A
O182       Al192   1.905       .  S
Al183       O196   1.948   1_455  S
Al183       O193   1.950       .  S
Al183       O188   1.778       .  S
O184        C191   1.270       .  A
O184       Al192   1.955       .  S
O185        C194   1.270       .  A
O185       Al192   1.967       .  S
O186       Al192   1.876       .  S
O187        C194   1.259       .  A
O188       Al192   1.789       .  S
O189        C190   1.270   1_455  A
C190        C214   1.481       .  S
C191        C310   1.478       .  S
C194        C326   1.488       .  S
C195        C258   1.496       .  S
C195        O196   1.267       .  A
C197        C198   1.203   1_556  T
C198        C199   1.408       .  S
C199        C200   1.204       .  T
C201        C202   1.203       .  T
C202        C203   1.408       .  S
C203        C204   1.203       .  T
C205        C206   1.352       .  D
C205        H207   1.086       .  S
C206        H208   1.086       .  S
C209        C210   1.203       .  T
C210        C211   1.408       .  S
C211        C212   1.203   1_565  T
C213        C214   1.348   1_545  D
C213        H215   1.086   1_655  S
C214        H216   1.088       .  S
C217        C218   1.353       .  D
C217        H219   1.087       .  S
C218        H220   1.086       .  S
C221        C222   1.343       .  D
C221        H223   1.086       .  S
C222        H224   1.088       .  S
C225        C226   1.205       .  T
C226        C227   1.411       .  S
C227        C228   1.205   1_545  T
C229        C230   1.205       .  T
C230        C231   1.411       .  S
C231        C232   1.205       .  T
C233        C234   1.353       .  D
C233        H235   1.087       .  S
C234        H236   1.086       .  S
C237        C238   1.204       .  T
C238        C239   1.409       .  S
C239        C240   1.204       .  T
C241        C242   1.345   1_554  D
C241        H243   1.086   1_655  S
C242        H244   1.087       .  S
C245        C246   1.350       .  D
C245        H247   1.086       .  S
C246        H248   1.087       .  S
C249        C250   1.347       .  D
C249        H251   1.088       .  S
C250        H252   1.086       .  S
C253        C254   1.202       .  T
C254        C255   1.406       .  S
C255        C256   1.202   1_655  T
C257        C258   1.348       .  D
C257        H259   1.087       .  S
C258        H260   1.086       .  S
C261        C262   1.202       .  T
C262        C263   1.406       .  S
C263        C264   1.202       .  T
C265        C266   1.355       .  D
C265        H267   1.086       .  S
C266        H268   1.086       .  S
C269        C270   1.203       .  T
C270        C271   1.407   1_556  S
C271        C272   1.203       .  T
C273        C274   1.357       .  D
C273        H275   1.086       .  S
C274        H276   1.086       .  S
C277        C278   1.347   1_565  D
C277        H279   1.087   1_554  S
C278        H280   1.086       .  S
C281        C282   1.358       .  D
C281        H283   1.086       .  S
C282        H284   1.086       .  S
C285        C286   1.349       .  D
C285        H287   1.086       .  S
C286        H288   1.087       .  S
C289        C290   1.355       .  D
C289        H291   1.086       .  S
C290        H292   1.087       .  S
C293        C294   1.349       .  D
C293        H295   1.086       .  S
C294        H296   1.087       .  S
C297        C298   1.346       .  D
C297        H299   1.088       .  S
C298        H300   1.086       .  S
C301        C302   1.350       .  D
C301        H303   1.086       .  S
C302        H304   1.087       .  S
C305        C306   1.205       .  T
C306        C307   1.410       .  S
C307        C308   1.205       .  T
C309        C310   1.352       .  D
C309        H311   1.087   1_455  S
C310        H312   1.086       .  S
C313        C314   1.347       .  D
C313        H315   1.087       .  S
C314        H316   1.086       .  S
C317        C318   1.206       .  T
C318        C319   1.412       .  S
C319        C320   1.206       .  T
C321        C322   1.357       .  D
C321        H323   1.086       .  S
C322        H324   1.086       .  S
C325        C326   1.352       .  D
C325        H327   1.086       .  S
C326        H328   1.087   1_565  S
C329        C330   1.206       .  T
C330        C331   1.412       .  S
C331        C332   1.206       .  T
C333        C334   1.351       .  D
C333        H335   1.087       .  S
C334        H336   1.086       .  S
C337        C338   1.345       .  D
C337        H339   1.086       .  S
C338        H340   1.088   1_556  S
