geometry optimzed in LAMMPS
_audit_creation_date              2020-11-30 
_audit_creation_method            'lammps2cif' 
_symmetry_space_group_name_H-M    'P1' 
_symmetry_Int_Tables_number       1 
_symmetry_cell_setting            triclinic 
loop_ 
_symmetry_equiv_pos_as_xyz 
  x,y,z 
_cell_length_a                    39.53218585 
_cell_length_b                    39.57661539100709 
_cell_length_c                    24.587293319553208 
_cell_angle_alpha                 90.1065017155027 
_cell_angle_beta                  89.88726852270379 
_cell_angle_gamma                 89.92243991630578 
loop_ 
_atom_site_label 
_atom_site_type_symbol 
_atom_site_fract_x 
_atom_site_fract_y 
_atom_site_fract_z 
_atom_site_charge 
N1          N  0.71150257  0.99722984  0.07835484    -0.26600
N2          N  0.68297764  0.00431568  0.10410141    -0.34500
C3          C  0.68954015  0.00848352  0.15737237     0.01700
C4          C  0.72374163  0.00318214  0.16544334     0.07700
C5          C  0.73689272  0.99606852  0.11458647    -0.05400
H6          H  0.67060241  0.01349262  0.18818365     0.08400
H7          H  0.76294125  0.99030882  0.10461819     0.09600
Cu8        Cu  0.63621332  0.00424476  0.06606629     0.44200
Cu9        Cu  0.71440371  0.98957184  0.99523833     0.42000
Cu10       Cu  0.63503259  0.99022107  0.92015107     0.43900
N11         N  0.59208487  0.99856349  0.02147688    -0.34000
N12         N  0.59131971  0.99329944  0.96833682    -0.28300
C13         C  0.55877757  0.99014524  0.95272628    -0.04400
C14         C  0.53820750  0.99343671  0.99825682     0.07800
C15         C  0.56025671  0.99878862  0.04100650     0.01600
H16         H  0.55069935  0.98562373  0.91134077     0.09300
H17         H  0.55370141  0.00262861  0.08330980     0.08400
N18         N  0.68285919  0.98706714  0.88356632    -0.35500
N19         N  0.71146774  0.98651682  0.91139181    -0.27700
C20         C  0.73771764  0.98542046  0.87659751    -0.02900
C21         C  0.72521315  0.98530986  0.82415952     0.05700
C22         C  0.69031859  0.98628307  0.83004851     0.03800
H23         H  0.76400299  0.98543393  0.88875324     0.08900
H24         H  0.67171278  0.98711215  0.79788559     0.07700
C25         C  0.84974836  0.00238904  0.49370753    -0.01800
C26         C  0.18945820  0.00850400  0.50866155    -0.01800
N27         N  0.33079433  0.01653653  0.09517844    -0.26600
N28         N  0.35900861  0.00768731  0.12031738    -0.34500
C29         C  0.35286873  0.00617762  0.17415846     0.01700
C30         C  0.31943148  0.01505763  0.18318711     0.07700
C31         C  0.30625269  0.02159000  0.13229759    -0.05400
H32         H  0.37142834  0.99932795  0.20448886     0.08400
H33         H  0.28042877  0.02839421  0.12270549     0.09600
Cu34       Cu  0.40494808  0.99907901  0.08041381     0.44200
Cu35       Cu  0.32578922  0.01870311  0.01145292     0.42000
Cu36       Cu  0.40231733  0.00197142  0.93362229     0.43900
N37         N  0.44791566  0.99450466  0.03123606    -0.34000
N38         N  0.44672055  0.99452056  0.97747128    -0.28300
C39         C  0.47846274  0.99275370  0.95761229    -0.04400
C40         C  0.50083090  0.99220938  0.00084306     0.07800
C41         C  0.48054777  0.99325273  0.04692730     0.01600
H42         H  0.48483576  0.99358134  0.91483044     0.09300
H43         H  0.48890892  0.99412548  0.08877705     0.08400
N44         N  0.35523700  0.01147374  0.89887552    -0.35500
N45         N  0.32730244  0.01690228  0.92729232    -0.27700
C46         C  0.30115175  0.02067498  0.89288697    -0.02900
C47         C  0.31324696  0.01784818  0.84024222     0.05700
C48         C  0.34762674  0.01211538  0.84555719     0.03800
H49         H  0.27525061  0.02503917  0.90537354     0.08900
H50         H  0.36569327  0.00786892  0.81315874     0.07700
N51         N  0.02780953  0.69405746  0.90665020    -0.26600
N52         N  0.02575251  0.66547443  0.87881940    -0.34500
C53         C  0.02824640  0.67240470  0.82521559     0.01700
C54         C  0.03182156  0.70703423  0.81899576     0.07700
C55         C  0.03139889  0.71982348  0.87150162    -0.05400
H56         H  0.02669660  0.65369635  0.79318313     0.08400
H57         H  0.03312945  0.74608527  0.88340085     0.09600
Cu58       Cu  0.01809065  0.61861866  0.91545002     0.44200
Cu59       Cu  0.02436996  0.69771339  0.99140420     0.42000
Cu60       Cu  0.00133063  0.62187388  0.06152595     0.43900
N61         N  0.01034415  0.57622152  0.96401218    -0.34000
N62         N  0.00481064  0.57754079  0.01706637    -0.28300
C63         C  0.00225599  0.54591670  0.03655975    -0.04400
C64         C  0.00602940  0.52361366  0.99367910     0.07800
C65         C  0.01106134  0.54364108  0.94830522     0.01600
H66         H  0.99796298  0.53970423  0.07884588     0.09300
H67         H  0.01533390  0.53519182  0.90699103     0.08400
N68         N  0.00482294  0.66816751  0.10026106    -0.35500
N69         N  0.01584427  0.69560053  0.07531051    -0.27700
C70         C  0.02017717  0.72016450  0.11257005    -0.02900
C71         C  0.01072292  0.70775793  0.16302509     0.05700
C72         C  0.00091466  0.67476622  0.15368813     0.03800
H73         H  0.02986011  0.74511856  0.10373486     0.08900
H74         H  0.99354611  0.65631406  0.18387219     0.07700
C75         C  0.02663067  0.83541320  0.49125071    -0.01800
N76         N  0.01172366  0.31296332  0.91814315    -0.26600
N77         N  0.00943793  0.34125620  0.88994992    -0.34500
C78         C  0.00813042  0.33369523  0.83659450     0.01700
C79         C  0.00946811  0.29889332  0.83098972     0.07700
C80         C  0.01171657  0.28658597  0.88354477    -0.05400
H81         H  0.00616509  0.35219531  0.80441941     0.08400
H82         H  0.01343269  0.26040990  0.89581764     0.09600
Cu83       Cu  0.00759065  0.38848286  0.92641219     0.44200
Cu84       Cu  0.01461579  0.31198892  0.00248673     0.42000
Cu85       Cu  0.00322888  0.39120220  0.07458412     0.43900
N86         N  0.00559541  0.43265688  0.97173473    -0.34000
N87         N  0.00351203  0.43376019  0.02541475    -0.28300
C88         C  0.00311708  0.46626484  0.04155908    -0.04400
C89         C  0.00514427  0.48648916  0.99582853     0.07800
C90         C  0.00667892  0.46436997  0.95235008     0.01600
H91         H  0.00196366  0.47449059  0.08350972     0.09300
H92         H  0.00861328  0.47077965  0.90970925     0.08400
N93         N  0.00883960  0.34494902  0.11315023    -0.35500
N94         N  0.01484431  0.31641936  0.08671935    -0.27700
C95         C  0.01883096  0.29134344  0.12298280    -0.02900
C96         C  0.01447348  0.30456935  0.17458331     0.05700
C97         C  0.00810423  0.33861284  0.16693642     0.03800
H98         H  0.02329676  0.26516638  0.11241307     0.08900
H99         H  0.00343223  0.35740530  0.19808333     0.07700
C100        C  0.01198110  0.17408632  0.49911180    -0.01800
C101        C  0.01201386  0.20698372  0.63767315     0.21000
C102        C  0.00911453  0.20535832  0.69459024    -0.38900
C103        C  0.00935071  0.23655833  0.72195514     0.20000
C104        C  0.01212974  0.26698958  0.69467242     0.22600
C105        C  0.01544207  0.26854054  0.63790740    -0.39400
C106        C  0.01528296  0.23736544  0.61065191     0.21400
N107        N  0.01127504  0.18114212  0.60210002    -0.32700
C108        C  0.01330073  0.19502821  0.55162408    -0.10200
C109        C  0.01701308  0.23019352  0.55594828    -0.29000
N110        N  0.01177937  0.29304010  0.72981718    -0.45600
C111        C  0.00918753  0.27913506  0.78000640    -0.04900
C112        C  0.00747927  0.24394099  0.77672415    -0.22300
H113        H  0.00664537  0.18159841  0.71595025     0.19500
H114        H  0.01769737  0.29229914  0.61647558     0.18300
H115        H  0.02034454  0.24852057  0.52388495     0.14600
H116        H  0.00551114  0.22613203  0.80991577     0.14500
H117        H  0.00892765  0.15551364  0.61151840     0.32600
H118        H  0.01386528  0.31866344  0.72021178     0.35400
C119        C  0.00246583  0.23409053  0.38823010     0.21000
C120        C  0.98935784  0.26248856  0.36124654    -0.38900
C121        C  0.00209567  0.26820091  0.30871538     0.20000
C122        C  0.02501360  0.24645461  0.28426174     0.22600
C123        C  0.03825601  0.21825744  0.31143595    -0.39400
C124        C  0.02661080  0.21341722  0.36473977     0.21400
N125        N  0.99457978  0.22313927  0.43832798    -0.32700
C126        C  0.01508539  0.19624533  0.44835316    -0.10200
C127        C  0.03504210  0.18921012  0.40251058    -0.29000
N128        N  0.03238863  0.25675484  0.23360608    -0.45600
C129        C  0.01461220  0.28565387  0.22606412    -0.06100
C130        C  0.99556270  0.29378554  0.27212034    -0.22300
H131        H  0.97095377  0.27911759  0.38001298     0.19500
H132        H  0.05662490  0.20157790  0.29270631     0.18300
H133        H  0.05241515  0.16838550  0.39652122     0.14600
H134        H  0.97862373  0.31504001  0.27752546     0.14500
H135        H  0.97587745  0.23306804  0.46384727     0.32600
H136        H  0.04870557  0.24498589  0.20596432     0.35400
C137        C  0.03535852  0.73967998  0.68259320     0.21000
C138        C  0.03673096  0.73880285  0.62536601    -0.38900
C139        C  0.03267762  0.77010267  0.59900781     0.20000
C140        C  0.02771419  0.79986179  0.62745289     0.22600
C141        C  0.02680641  0.80080734  0.68445500    -0.39400
C142        C  0.03083577  0.76964900  0.71076020     0.21400
N143        N  0.03694391  0.71338883  0.71733589    -0.32700
C144        C  0.03345266  0.72684080  0.76794210    -0.10200
C145        C  0.02989949  0.76188088  0.76528500    -0.29000
N146        N  0.02428186  0.82608712  0.59327913    -0.45600
C147        C  0.02709137  0.81329066  0.54218979    -0.04900
C148        C  0.03254175  0.77823616  0.54441812    -0.22300
H149        H  0.04025752  0.71547211  0.60301148     0.19500
H150        H  0.02284757  0.82409411  0.70673707     0.18300
H151        H  0.02600087  0.77930311  0.79868094     0.14600
H152        H  0.03664503  0.76098388  0.51086336     0.14500
H153        H  0.03966366  0.68788020  0.70718200     0.32600
H154        H  0.02071333  0.85139224  0.60407985     0.35400
C155        C  0.03516985  0.79055021  0.36145948     0.21000
C156        C  0.05009722  0.78289391  0.31126198    -0.38900
C157        C  0.03302861  0.75913328  0.27945440     0.20000
C158        C  0.00373004  0.74332903  0.29677885     0.22600
C159        C  0.98863399  0.75118702  0.34724516    -0.39400
C160        C  0.00541354  0.77581117  0.37859500     0.21400
N161        N  0.04662372  0.81258745  0.39839594    -0.32700
C162        C  0.02355914  0.81330213  0.43961188    -0.10200
C163        C  0.99765050  0.78995421  0.42855330    -0.29000
N164        N  0.99237456  0.72194794  0.25819022    -0.45600
C165        C  0.01427082  0.72502734  0.21583174    -0.04900
C166        C  0.03993801  0.74785648  0.22774483    -0.22300
H167        H  0.07305911  0.79508526  0.29750678     0.19500
H168        H  0.96534429  0.73947955  0.36064091     0.18300
H169        H  0.97661251  0.78309417  0.45433037     0.14600
H170        H  0.06066700  0.75547619  0.20171549     0.14500
H171        H  0.06954256  0.82538134  0.39500874     0.32600
H172        H  0.97051527  0.70718036  0.25969980     0.35400
C173        C  0.06788900  0.10102297  0.50932827     0.21000
C174        C  0.07604131  0.06670648  0.51327418    -0.38900
C175        C  0.11059648  0.05908660  0.51391258     0.20000
C176        C  0.13540612  0.08355414  0.51112397     0.22600
C177        C  0.12720181  0.11814435  0.50757699    -0.39400
C178        C  0.09238318  0.12586318  0.50677514     0.21400
N179        N  0.03677843  0.11443823  0.50694860    -0.32700
C180        C  0.04100150  0.14840311  0.50228350    -0.10200
C181        C  0.07555958  0.15641846  0.50290568    -0.29000
N182        N  0.16638412  0.06917427  0.51065314    -0.45600
C183        C  0.16119648  0.03517898  0.51182998    -0.04900
C184        C  0.12644503  0.02834167  0.51529707    -0.22300
H185        H  0.05683072  0.04725874  0.51484094     0.19500
H186        H  0.14641492  0.13752529  0.50495293     0.18300
H187        H  0.08674076  0.18130058  0.50020549     0.14600
H188        H  0.11395931  0.00409589  0.51777199     0.14500
H189        H  0.01420874  0.10086333  0.50926962     0.32600
H190        H  0.18961082  0.08161622  0.50802052     0.35400
C191        C  0.13785406  0.93769164  0.46844717     0.21000
C192        C  0.11121763  0.92375527  0.43856292    -0.38900
C193        C  0.09520068  0.89596684  0.46220638     0.20000
C194        C  0.10521372  0.88246087  0.51140651     0.22600
C195        C  0.13181997  0.89670281  0.54172190    -0.39400
C196        C  0.14756447  0.92510046  0.51846656     0.21400
N197        N  0.15391099  0.96662291  0.45760911    -0.32700
C198        C  0.17322607  0.97375150  0.50172747    -0.10200
C199        C  0.17067514  0.94764858  0.54008965    -0.29000
N200        N  0.08389628  0.85777699  0.52698814    -0.45600
C201        C  0.05945881  0.85617944  0.48807963    -0.04900
C202        C  0.06616574  0.87970983  0.44692948    -0.22300
H203        H  0.10233556  0.93498273  0.40108685     0.19500
H204        H  0.13844545  0.88756067  0.58177440     0.18300
H205        H  0.18179112  0.94647033  0.58017499     0.14600
H206        H  0.05047653  0.88551601  0.41211700     0.14500
H207        H  0.14955438  0.98232761  0.42421453     0.32600
H208        H  0.08520488  0.84435615  0.56348416     0.35400
C209        C  0.28160786  0.01971192  0.70401878     0.21000
C210        C  0.28333572  0.02070515  0.64702388    -0.38900
C211        C  0.25243362  0.01680409  0.61971390     0.20000
C212        C  0.22222175  0.01198299  0.64690607     0.22600
C213        C  0.22041308  0.01139703  0.70394467    -0.39400
C214        C  0.25125100  0.01561351  0.73135293     0.21400
N215        N  0.30748458  0.02161583  0.73926984    -0.32700
C216        C  0.29349503  0.01889090  0.78946357    -0.10200
C217        C  0.25842706  0.01543052  0.78619094    -0.29000
N218        N  0.19658392  0.00848392  0.61148706    -0.45600
C219        C  0.21034214  0.01102595  0.56095615    -0.04900
C220        C  0.24530055  0.01678609  0.56497031    -0.22300
H221        H  0.30701573  0.02401558  0.62551381     0.19500
H222        H  0.19677877  0.00770963  0.72540011     0.18300
H223        H  0.24071002  0.01206117  0.81933897     0.14600
H224        H  0.26341680  0.02087320  0.53269081     0.14500
H225        H  0.33311626  0.02418138  0.72969444     0.32600
H226        H  0.17111185  0.00472818  0.62107940     0.35400
C227        C  0.25057372  0.00317731  0.39836133     0.21000
C228        C  0.27883928  0.99032022  0.37054120    -0.38900
C229        C  0.28454138  0.00371359  0.31857839     0.20000
C230        C  0.26320480  0.02746777  0.29559542     0.22600
C231        C  0.23522984  0.04070467  0.32383156    -0.39400
C232        C  0.23005368  0.02790788  0.37639727     0.21400
N233        N  0.23903368  0.99366549  0.44733183    -0.32700
C234        C  0.21159577  0.01330575  0.45814650    -0.10200
C235        C  0.20510971  0.03482442  0.41410552    -0.29000
N236        N  0.27303114  0.03470338  0.24457498    -0.45600
C237        C  0.30112671  0.01582635  0.23538559    -0.04900
C238        C  0.30925209  0.99635344  0.28072669    -0.22300
H239        H  0.29500871  0.97107304  0.38788143     0.19500
H240        H  0.21856507  0.05935139  0.30601736     0.18300
H241        H  0.18416518  0.05212989  0.40897342     0.14600
H242        H  0.32977847  0.97841324  0.28474110     0.14500
H243        H  0.24889503  0.97441014  0.47164209     0.32600
H244        H  0.26131010  0.05136930  0.21761680     0.35400
C245        C  0.90291043  0.92690087  0.49610803     0.21000
C246        C  0.91072516  0.89221100  0.49196845    -0.38900
C247        C  0.94528709  0.88379764  0.49612846     0.20000
C248        C  0.96971356  0.90805837  0.50476604     0.22600
C249        C  0.96194285  0.94249478  0.50936202    -0.39400
C250        C  0.92774954  0.95091974  0.50393286     0.21400
N251        N  0.87235594  0.94178476  0.49179631    -0.32700
C252        C  0.87786600  0.97566019  0.49534114    -0.10200
C253        C  0.91234284  0.98202804  0.50368591    -0.29000
N254        N  0.00057796  0.89417660  0.50555385    -0.45600
C255        C  0.99669972  0.86050197  0.49564549    -0.04900
C256        C  0.96199921  0.85312534  0.49122007    -0.22300
H257        H  0.89147427  0.87332431  0.48474095     0.19500
H258        H  0.98130354  0.96147905  0.51517778     0.18300
H259        H  0.92471658  0.00614627  0.50934896     0.14600
H260        H  0.95017078  0.82895198  0.48455607     0.14500
H261        H  0.84914764  0.92970541  0.48612816     0.32600
H262        H  0.02286715  0.90756347  0.51310596     0.35400
C263        C  0.89943085  0.07622465  0.46079683     0.21000
C264        C  0.92535053  0.09251460  0.43220780    -0.38900
C265        C  0.94136888  0.11896484  0.45979249     0.20000
C266        C  0.93201287  0.12897913  0.51159224     0.22600
C267        C  0.90567977  0.11288978  0.53998025    -0.39400
C268        C  0.88992469  0.08595988  0.51267065     0.21400
N269        N  0.88438813  0.04717076  0.44688179    -0.32700
C270        C  0.86561173  0.03751353  0.49043953    -0.10200
C271        C  0.86767160  0.06186479  0.53181526    -0.29000
N272        N  0.95406614  0.15173607  0.53149685    -0.45600
C273        C  0.97836832  0.15539626  0.49270076    -0.04900
C274        C  0.97053818  0.13586522  0.44689475    -0.22300
H275        H  0.93410995  0.08357802  0.39298425     0.19500
H276        H  0.89961661  0.11922001  0.58171998     0.18300
H277        H  0.85695756  0.06084913  0.57225282     0.14600
H278        H  0.98592391  0.13225454  0.41087744     0.14500
H279        H  0.88888837  0.03317275  0.41150451     0.32600
H280        H  0.95331099  0.16224613  0.57040719     0.35400
C281        C  0.75717743  0.98746427  0.68783499     0.21000
C282        C  0.75553705  0.98805397  0.63086667    -0.38900
C283        C  0.78660752  0.99135032  0.60380517     0.20000
C284        C  0.81693802  0.99412938  0.63123253     0.22600
C285        C  0.81867542  0.99317767  0.68823347    -0.39400
C286        C  0.78760090  0.98966892  0.71537972     0.21400
N287        N  0.73115805  0.98529682  0.72290063    -0.32700
C288        C  0.74505975  0.98599784  0.77323712    -0.10200
C289        C  0.78026216  0.98856540  0.77016377    -0.29000
N290        N  0.84266265  0.99805401  0.59605994    -0.45600
C291        C  0.82878986  0.99797813  0.54552074    -0.04900
C292        C  0.79371354  0.99310384  0.54913033    -0.22300
H293        H  0.73178423  0.98639054  0.60920834     0.19500
H294        H  0.84240556  0.99533958  0.70984024     0.18300
H295        H  0.79806113  0.99005165  0.80345790     0.14600
H296        H  0.77543854  0.99108781  0.51668126     0.14500
H297        H  0.70549573  0.98373745  0.71309131     0.32600
H298        H  0.86822641  0.00085163  0.60582671     0.35400
C299        C  0.78949421  0.01053473  0.38316506     0.21000
C300        C  0.76185429  0.02446064  0.35525851    -0.38900
C301        C  0.75703643  0.01258050  0.30205400     0.20000
C302        C  0.77856428  0.98918721  0.27827387     0.22600
C303        C  0.80567872  0.97472299  0.30665538    -0.39400
C304        C  0.81005275  0.98610074  0.36017143     0.21400
N305        N  0.80066918  0.01894942  0.43285794    -0.32700
C306        C  0.82792915  0.99892538  0.44278165    -0.10200
C307        C  0.83457988  0.97822326  0.39772300    -0.29000
N308        N  0.76970925  0.98333676  0.22644898    -0.45600
C309        C  0.74194118  0.00260223  0.21746848    -0.04900
C310        C  0.73308649  0.02107676  0.26372338    -0.22300
H311        H  0.74563686  0.04348521  0.37332699     0.19500
H312        H  0.82245113  0.95635408  0.28814743     0.18300
H313        H  0.85549612  0.96096423  0.39173609     0.14600
H314        H  0.71235661  0.03875440  0.26828871     0.14500
H315        H  0.79083445  0.03784622  0.45807467     0.32600
H316        H  0.78157616  0.96693636  0.19906278     0.35400
loop_ 
_geom_bond_atom_site_label_1 
_geom_bond_atom_site_label_2 
_geom_bond_distance 
_geom_bond_site_symmetry_2 
_ccdc_geom_bond_type 
N1            N2   1.322   1_565  A
N1            C5   1.344       .  A
N1           Cu9   2.068   1_554  S
N2            C3   1.346       .  A
N2           Cu8   2.073       .  S
C3            C4   1.383       .  A
C3            H6   1.082       .  S
C4            C5   1.382   1_545  A
C4          C309   1.469       .  S
C5            H7   1.082       .  S
Cu8          N11   2.074   1_545  S
Cu9          N19   2.068       .  S
Cu10         N12   2.097       .  S
Cu10         N18   2.096       .  S
N11          N12   1.323   1_554  A
N11          C15   1.346       .  A
N12          C13   1.349       .  A
C13          C14   1.388       .  A
C13          H16   1.082       .  S
C14          C15   1.383   1_556  A
C14          C40   1.480   1_556  S
C15          H17   1.082   1_565  S
N18          N19   1.323       .  A
N18          C22   1.348       .  A
N19          C20   1.344       .  A
C20          C21   1.382       .  A
C20          H23   1.082       .  S
C21          C22   1.387       .  A
C21         C288   1.477       .  S
C22          H24   1.082       .  S
C25         C252   1.534   1_545  S
C25         C270   1.528       .  S
C25         C291   1.529   1_545  S
C25         C306   1.528   1_545  S
C26         C183   1.538       .  S
C26         C198   1.528   1_545  S
C26         C219   1.533       .  S
C26         C234   1.530       .  S
N27          N28   1.323       .  A
N27          C31   1.345       .  A
N27         Cu35   2.070       .  S
N28          C29   1.347       .  A
N28         Cu34   2.090   1_545  S
C29          C30   1.385       .  A
C29          H32   1.082   1_545  S
C30          C31   1.381       .  A
C30         C237   1.472       .  S
C31          H33   1.082       .  S
Cu34         N37   2.091       .  S
Cu35         N45   2.071   1_554  S
Cu36         N38   2.083   1_545  S
Cu36         N44   2.083       .  S
N37          N38   1.323   1_554  A
N37          C41   1.348       .  A
N38          C39   1.347       .  A
C39          C40   1.384   1_556  A
C39          H42   1.082       .  S
C40          C41   1.387       .  A
C41          H43   1.082       .  S
N44          N45   1.323       .  A
N44          C48   1.346       .  A
N45          C46   1.345       .  A
C46          C47   1.383       .  A
C46          H49   1.082       .  S
C47          C48   1.384       .  A
C47         C216   1.474       .  S
C48          H50   1.082       .  S
N51          N52   1.324       .  A
N51          C55   1.345       .  A
N51         Cu59   2.093       .  S
N52          C53   1.350       .  A
N52         Cu58   2.085       .  S
C53          C54   1.387       .  A
C53          H56   1.082       .  S
C54          C55   1.386       .  A
C54         C144   1.482       .  S
C55          H57   1.082       .  S
Cu58         N61   2.084       .  S
Cu59         N69   2.092   1_556  S
Cu60         N62   2.070       .  S
Cu60         N68   2.068       .  S
N61          N62   1.323   1_556  A
N61          C65   1.346       .  A
N62          C63   1.345       .  A
C63          C64   1.381   1_554  A
C63          H66   1.082   1_455  S
C64          C65   1.384       .  A
C64          C89   1.471       .  S
C65          H67   1.082       .  S
N68          N69   1.322       .  A
N68          C72   1.347       .  A
N69          C70   1.346       .  A
C70          C71   1.386       .  A
C70          H73   1.082       .  S
C71          C72   1.381       .  A
C71         C165   1.473       .  S
C72          H74   1.082   1_455  S
C75         C147   1.530       .  S
C75         C162   1.546       .  S
C75         C201   1.539       .  S
C75         C255   1.547   1_455  S
N76          N77   1.321       .  A
N76          C80   1.345       .  A
N76         Cu84   2.078   1_556  S
N77          C78   1.346       .  A
N77         Cu83   2.073       .  S
C78          C79   1.385       .  A
C78          H81   1.082       .  S
C79          C80   1.385       .  A
C79         C111   1.476       .  S
C80          H82   1.082       .  S
Cu83         N86   2.073       .  S
Cu84         N94   2.078       .  S
Cu85         N87   2.075       .  S
Cu85         N93   2.075       .  S
N86          N87   1.323   1_556  A
N86          C90   1.344       .  A
N87          C88   1.346       .  A
C88          C89   1.384   1_554  A
C88          H91   1.082       .  S
C89          C90   1.382       .  A
C90          H92   1.082       .  S
N93          N94   1.323       .  A
N93          C97   1.347       .  A
N94          C95   1.345       .  A
C95          C96   1.382       .  A
C95          H98   1.082       .  S
C96          C97   1.384       .  A
C96         C129   1.472       .  S
C97          H99   1.082       .  S
C100        C108   1.534       .  S
C100        C126   1.531       .  S
C100        C180   1.534       .  S
C100        C273   1.530   1_455  S
C101        N107   1.345       .  A
C101        C106   1.381       .  A
C101        C102   1.405       .  A
C102        C103   1.405       .  A
C102        H113   1.082       .  S
C103        C112   1.379       .  A
C103        C104   1.384       .  A
C104        N110   1.344       .  A
C104        C105   1.403       .  A
C105        C106   1.403       .  A
C105        H114   1.082       .  S
C106        C109   1.376       .  A
N107        C108   1.360       .  A
N107        H117   1.045       .  S
C108        C109   1.403       .  A
C109        H115   1.080       .  S
N110        C111   1.356       .  A
N110        H118   1.045       .  S
C111        C112   1.397       .  A
C112        H116   1.082       .  S
C119        N125   1.343   1_455  A
C119        C124   1.381       .  A
C119        C120   1.405   1_455  A
C120        C121   1.404   1_655  A
C120        H131   1.082       .  S
C121        C130   1.380   1_455  A
C121        C122   1.385       .  A
C122        N128   1.343       .  A
C122        C123   1.403       .  A
C123        C124   1.402       .  A
C123        H132   1.082       .  S
C124        C127   1.377       .  A
N125        C126   1.360   1_655  A
N125        H135   1.045       .  S
C126        C127   1.402       .  A
C127        H133   1.082       .  S
N128        C129   1.355       .  A
N128        H136   1.045       .  S
C129        C130   1.396   1_455  A
C130        H134   1.082       .  S
C137        N143   1.349       .  A
C137        C142   1.384       .  A
C137        C138   1.408       .  A
C138        C139   1.408       .  A
C138        H149   1.082       .  S
C139        C148   1.381       .  A
C139        C140   1.382       .  A
C140        N146   1.343       .  A
C140        C141   1.402       .  A
C141        C142   1.403       .  A
C141        H150   1.082       .  S
C142        C145   1.376       .  A
N143        C144   1.359       .  A
N143        H153   1.045       .  S
C144        C145   1.395       .  A
C145        H151   1.082       .  S
N146        C147   1.358       .  A
N146        H154   1.045       .  S
C147        C148   1.405       .  A
C148        H152   1.082       .  S
C155        N161   1.338       .  A
C155        C160   1.379       .  A
C155        C156   1.400       .  A
C156        C157   1.397       .  A
C156        H167   1.082       .  S
C157        C166   1.373       .  A
C157        C158   1.384       .  A
C158        N164   1.348   1_455  A
C158        C159   1.410   1_455  A
C159        C160   1.409   1_655  A
C159        H168   1.082       .  S
C160        C163   1.383   1_455  A
N161        C162   1.362       .  A
N161        H171   1.042       .  S
C162        C163   1.407   1_455  A
C163        H169   1.080       .  S
N164        C165   1.359   1_655  A
N164        H172   1.045       .  S
C165        C166   1.391       .  A
C166        H170   1.082       .  S
C173        N179   1.340       .  A
C173        C178   1.382       .  A
C173        C174   1.399       .  A
C174        C175   1.399       .  A
C174        H185   1.083       .  S
C175        C184   1.368       .  A
C175        C176   1.381       .  A
C176        N182   1.350       .  A
C176        C177   1.409       .  A
C177        C178   1.410       .  A
C177        H186   1.082       .  S
C178        C181   1.383       .  A
N179        C180   1.360       .  A
N179        H189   1.044       .  S
C180        C181   1.403       .  A
C181        H187   1.082       .  S
N182        C183   1.362       .  A
N182        H190   1.044       .  S
C183        C184   1.403       .  A
C184        H188   1.081       .  S
C191        N197   1.337       .  A
C191        C196   1.383       .  A
C191        C192   1.399       .  A
C192        C193   1.397       .  A
C192        H203   1.083       .  S
C193        C202   1.369       .  A
C193        C194   1.382       .  A
C194        N200   1.347       .  A
C194        C195   1.408       .  A
C195        C196   1.407       .  A
C195        H204   1.082       .  S
C196        C199   1.384       .  A
N197        C198   1.357       .  A
N197        H207   1.045       .  S
C198        C199   1.404       .  A
C199        H205   1.081       .  S
N200        C201   1.362       .  A
N200        H208   1.045       .  S
C201        C202   1.402       .  A
C202        H206   1.083       .  S
C209        N215   1.344       .  A
C209        C214   1.384       .  A
C209        C210   1.404       .  A
C210        C211   1.404       .  A
C210        H221   1.083       .  S
C211        C220   1.376       .  A
C211        C212   1.381       .  A
C212        N218   1.345       .  A
C212        C213   1.404       .  A
C213        C214   1.404       .  A
C213        H222   1.082       .  S
C214        C217   1.378       .  A
N215        C216   1.356       .  A
N215        H225   1.045       .  S
C216        C217   1.396       .  A
C217        H223   1.082       .  S
N218        C219   1.359       .  A
N218        H226   1.045       .  S
C219        C220   1.405       .  A
C220        H224   1.081       .  S
C227        N233   1.341   1_545  A
C227        C232   1.382       .  A
C227        C228   1.403   1_545  A
C228        C229   1.402   1_565  A
C228        H239   1.082       .  S
C229        C238   1.378   1_545  A
C229        C230   1.384       .  A
C230        N236   1.344       .  A
C230        C231   1.405       .  A
C231        C232   1.404       .  A
C231        H240   1.082       .  S
C232        C235   1.379       .  A
N233        C234   1.359   1_565  A
N233        H243   1.045       .  S
C234        C235   1.403       .  A
C235        H241   1.082       .  S
N236        C237   1.356       .  A
N236        H244   1.045       .  S
C237        C238   1.394   1_545  A
C238        H242   1.082       .  S
C245        N251   1.348       .  A
C245        C250   1.381       .  A
C245        C246   1.410       .  A
C246        C247   1.410       .  A
C246        H257   1.082       .  S
C247        C256   1.386       .  A
C247        C248   1.379       .  A
C248        N254   1.338   1_655  A
C248        C249   1.401       .  A
C249        C250   1.399       .  A
C249        H258   1.083       .  S
C250        C253   1.373       .  A
N251        C252   1.361       .  A
N251        H261   1.045       .  S
C252        C253   1.402       .  A
C253        H259   1.082   1_565  S
N254        C255   1.363   1_455  A
N254        H262   1.046       .  S
C255        C256   1.407       .  A
C256        H260   1.078       .  S
C263        N269   1.339       .  A
C263        C268   1.383       .  A
C263        C264   1.400       .  A
C264        C265   1.399       .  A
C264        H275   1.083       .  S
C265        C274   1.371       .  A
C265        C266   1.383       .  A
C266        N272   1.346       .  A
C266        C267   1.406       .  A
C267        C268   1.406       .  A
C267        H276   1.082       .  S
C268        C271   1.381       .  A
N269        C270   1.358       .  A
N269        H279   1.045       .  S
C270        C271   1.403       .  A
C271        H277   1.081       .  S
N272        C273   1.361       .  A
N272        H280   1.043       .  S
C273        C274   1.400       .  A
C274        H278   1.082       .  S
C281        N287   1.344       .  A
C281        C286   1.384       .  A
C281        C282   1.403       .  A
C282        C283   1.402       .  A
C282        H293   1.082       .  S
C283        C292   1.375       .  A
C283        C284   1.381       .  A
C284        N290   1.343       .  A
C284        C285   1.404       .  A
C285        C286   1.404       .  A
C285        H294   1.082       .  S
C286        C289   1.378       .  A
N287        C288   1.355       .  A
N287        H297   1.045       .  S
C288        C289   1.397       .  A
C289        H295   1.082       .  S
N290        C291   1.359       .  A
N290        H298   1.045   1_565  S
C291        C292   1.403       .  A
C292        H296   1.080       .  S
C299        N305   1.342       .  A
C299        C304   1.382   1_545  A
C299        C300   1.404       .  A
C300        C301   1.403       .  A
C300        H311   1.082       .  S
C301        C310   1.379       .  A
C301        C302   1.385   1_545  A
C302        N308   1.342       .  A
C302        C303   1.402       .  A
C303        C304   1.401       .  A
C303        H312   1.082       .  S
C304        C307   1.376       .  A
N305        C306   1.360   1_545  A
N305        H315   1.045       .  S
C306        C307   1.401       .  A
C307        H313   1.081       .  S
N308        C309   1.354   1_565  A
N308        H316   1.045       .  S
C309        C310   1.395       .  A
C310        H314   1.082       .  S
