geometry optimzed in LAMMPS
_audit_creation_date              2020-11-30 
_audit_creation_method            'lammps2cif' 
_symmetry_space_group_name_H-M    'P1' 
_symmetry_Int_Tables_number       1 
_symmetry_cell_setting            triclinic 
loop_ 
_symmetry_equiv_pos_as_xyz 
  x,y,z 
_cell_length_a                    23.54432752 
_cell_length_b                    23.5144843736841 
_cell_length_c                    35.225867771680875 
_cell_angle_alpha                 90.06788354086987 
_cell_angle_beta                  90.0608073984947 
_cell_angle_gamma                 90.21879811436293 
loop_ 
_atom_site_label 
_atom_site_type_symbol 
_atom_site_fract_x 
_atom_site_fract_y 
_atom_site_fract_z 
_atom_site_charge 
O1          O  0.99207291  0.91919268  0.46924205    -0.69600
O2          O  0.99232392  0.08068716  0.46902990    -0.69900
O3          O  0.07314564  0.00011664  0.46911066    -0.69700
O4          O  0.91179900  0.99976187  0.46916401    -0.69700
O5          O  0.91180506  0.99998407  0.03091994    -0.69700
O6          O  0.07315254  0.00027029  0.03089047    -0.69700
O7          O  0.99236691  0.08087383  0.03081280    -0.69600
O8          O  0.99204645  0.91937842  0.03100013    -0.69800
V9          V  0.99243327  0.99994543  0.47033704     1.35200
V10         V  0.99243465  0.00012233  0.02970566     1.35200
C11         C  0.99131068  0.89200052  0.00015080     0.79600
C12         C  0.99172057  0.10798215  0.99990207     0.79700
C13         C  0.10048360  0.00031075  0.49997627     0.79500
C14         C  0.88466927  0.99985399  0.50005490     0.79500
O15         O  0.00799083  0.08052519  0.21899520    -0.69600
O16         O  0.00763464  0.91903009  0.21920530    -0.69900
O17         O  0.92686747  0.99964957  0.21911031    -0.69700
O18         O  0.08821477  0.99989971  0.21909272    -0.69700
O19         O  0.08832401  0.00019073  0.28085493    -0.69700
O20         O  0.92697777  0.99993495  0.28086163    -0.69700
O21         O  0.00774692  0.91931660  0.28096489    -0.69600
O22         O  0.00809715  0.08080959  0.28075466    -0.69800
V23         V  0.00758502  0.99978145  0.22030108     1.35200
V24         V  0.00769025  0.00005769  0.27965858     1.35200
C25         C  0.00872611  0.10791258  0.24984081     0.79600
C26         C  0.00826943  0.89193128  0.25011976     0.79700
C27         C  0.89965955  0.99975501  0.24998831     0.79500
C28         C  0.11547351  0.00008022  0.24997181     0.79500
O29         O  0.93185056  0.58068878  0.50004944    -0.69600
O30         O  0.93203891  0.41881121  0.99987009    -0.69900
O31         O  0.93170008  0.49966235  0.05388517    -0.69700
O32         O  0.93170373  0.49983857  0.44602312    -0.69700
O33         O  0.02398963  0.50025991  0.44590998    -0.69700
O34         O  0.02398596  0.50016452  0.05412966    -0.69700
O35         O  0.02439824  0.41964817  0.49993755    -0.69600
O36         O  0.02420006  0.58077531  0.00008964    -0.69800
V37         V  0.93361280  0.49970437  0.99995611     1.35200
V38         V  0.02234901  0.50016501  0.00001881     1.35200
C39         C  0.97810359  0.60793237  0.00009502     0.79600
C40         C  0.97840273  0.39194214  0.99988424     0.79700
C41         C  0.97768274  0.49989950  0.07240379     0.79500
C42         C  0.97768621  0.50003491  0.42756986     0.79500
O43         O  0.97580527  0.41913118  0.24991130    -0.69600
O44         O  0.97555220  0.58032941  0.25005740    -0.69900
O45         O  0.97600486  0.49974785  0.19587543    -0.69700
O46         O  0.97600572  0.49973241  0.30409492    -0.70100
O47         O  0.06829160  0.50019567  0.30398114    -0.69700
O48         O  0.06829069  0.50026895  0.19612017    -0.69700
O49         O  0.06793721  0.58111110  0.25014134    -0.69600
O50         O  0.06819087  0.41934204  0.24995849    -0.69800
V51         V  0.97764152  0.49974201  0.24998624     1.35200
V52         V  0.06637770  0.50021823  0.25004922     1.35200
C53         C  0.02190675  0.39198242  0.24990238     0.79600
C54         C  0.02156877  0.60797199  0.25012889     0.79700
C55         C  0.02230814  0.50002451  0.17760143     0.79500
C56         C  0.02230935  0.49998109  0.32243472     0.79500
O57         O  0.57322311  0.95382251  0.99668346    -0.69600
O58         O  0.41200223  0.95437399  0.49562701    -0.69900
O59         O  0.49387623  0.96412283  0.44276467    -0.69700
O60         O  0.49207203  0.94406387  0.04959964    -0.69700
O61         O  0.49416935  0.03578757  0.05723885    -0.69700
O62         O  0.49276162  0.05585683  0.45037325    -0.69700
O63         O  0.41236847  0.04583449  0.00429444    -0.69600
O64         O  0.57384634  0.04588509  0.50337631    -0.69800
V65         V  0.49261723  0.95582749  0.99631105     1.35200
V66         V  0.49307872  0.04402068  0.00368261     1.35200
C67         C  0.60079465  0.99984598  0.50006012     0.79600
C68         C  0.38485849  0.00007298  0.99995869     0.79700
C69         C  0.49420966  0.01339128  0.42841836     0.79500
C70         C  0.49397962  0.98650835  0.07156991     0.79500
O71         O  0.42678394  0.04599162  0.25331062    -0.69600
O72         O  0.58811874  0.04561019  0.25434672    -0.69900
O73         O  0.50792386  0.05572818  0.20038675    -0.69700
O74         O  0.50628871  0.03581419  0.30723536    -0.69700
O75         O  0.50744609  0.94408083  0.29962724    -0.69700
O76         O  0.50584100  0.96399921  0.19277297    -0.69700
O77         O  0.58765580  0.95400758  0.24571509    -0.69600
O78         O  0.42632081  0.95400568  0.24664761    -0.69800
V79         V  0.50738978  0.04400325  0.25367730     1.35200
V80         V  0.50694461  0.95580480  0.24633370     1.35200
C81         C  0.39934926  0.00002992  0.24997251     0.79600
C82         C  0.61515669  0.99977814  0.25003485     0.79700
C83         C  0.50602076  0.01327007  0.17842861     0.79500
C84         C  0.50598856  0.98654598  0.32158219     0.79500
C85         C  0.49697279  0.02182013  0.38708843    -0.14300
C86         C  0.50324336  0.97811733  0.36291274    -0.29500
H87         H  0.49461186  0.06507183  0.37638703     0.14700
H88         H  0.50560626  0.93486487  0.37361442     0.15300
C89         C  0.49665952  0.97804298  0.11290100    -0.14300
C90         C  0.50333800  0.02171935  0.13709686    -0.29500
H91         H  0.49388728  0.93478836  0.12358737     0.14700
H92         H  0.50610954  0.06497203  0.12640903     0.15300
C93         C  0.97628407  0.49997538  0.38560000    -0.14300
C94         C  0.02371174  0.50004442  0.36440461    -0.29500
H95         H  0.93497303  0.49984549  0.37182192     0.14700
H96         H  0.06502285  0.50017670  0.37818269     0.15300
C97         C  0.97628138  0.49985635  0.11437144    -0.14300
C98         C  0.02370959  0.50007074  0.13563379    -0.29500
H99         H  0.93497042  0.49963491  0.12809109     0.14700
H100        H  0.06502059  0.50029322  0.12191415     0.15300
C101        C  0.17632798  0.00013979  0.24996733    -0.16400
C102        C  0.22747746  0.00015362  0.24996374     0.07700
C103        C  0.28735469  0.00013573  0.24996112     0.09600
C104        C  0.33850210  0.00009758  0.24996258    -0.17200
C105        C  0.67616188  0.99971281  0.25003518    -0.16400
C106        C  0.72740048  0.99967861  0.25002430     0.07700
C107        C  0.78742203  0.99966828  0.25000682     0.09600
C108        C  0.83865923  0.99968939  0.24999468    -0.17200
C109        C  0.01057913  0.83101941  0.25019370    -0.16400
C110        C  0.01390994  0.77990523  0.25022368     0.07700
C111        C  0.01814624  0.72008244  0.25022045     0.09600
C112        C  0.02080858  0.66892692  0.25018973    -0.17200
C113        C  0.01121478  0.16883753  0.24977002    -0.16400
C114        C  0.01459228  0.21997542  0.24975440     0.07700
C115        C  0.01877970  0.27983576  0.24978102     0.09600
C116        C  0.02133257  0.33101805  0.24983001    -0.17200
C117        C  0.16148445  0.00039603  0.49995359    -0.16400
C118        C  0.21259320  0.00024314  0.99998472     0.07700
C119        C  0.27274377  0.00038393  0.49991876     0.09600
C120        C  0.32385329  0.00015338  0.99995493    -0.17200
C121        C  0.66164144  0.99974878  0.50008431    -0.16400
C122        C  0.71266018  0.99967169  0.00005715     0.07700
C123        C  0.77253745  0.99967840  0.00005571     0.09600
C124        C  0.82381507  0.99975256  0.50007612    -0.17200
C125        C  0.97868937  0.66889652  0.00016078    -0.16400
C126        C  0.98135908  0.72016826  0.50022766     0.07700
C127        C  0.98559132  0.78002672  0.50024878     0.09600
C128        C  0.98882831  0.83107549  0.00021401    -0.17200
C129        C  0.97915339  0.33098658  0.99983089    -0.16400
C130        C  0.98177731  0.27991704  0.49977286     0.07700
C131        C  0.98605599  0.22009615  0.49977013     0.09600
C132        C  0.98939638  0.16889399  0.99983587    -0.17200
O133        O  0.99193001  0.91911305  0.96924060    -0.69600
O134        O  0.99224505  0.08060622  0.96905320    -0.69900
O135        O  0.07303226  0.00000395  0.96913911    -0.69700
O136        O  0.91168607  0.99971296  0.96915767    -0.69700
O137        O  0.91194756  0.00005427  0.53092623    -0.69700
O138        O  0.07329493  0.00040415  0.53086192    -0.69700
O139        O  0.99247537  0.08097559  0.53078937    -0.69600
O140        O  0.99221890  0.91947921  0.53100142    -0.69800
V141        V  0.99231989  0.99986461  0.97034811     1.35200
V142        V  0.99257638  0.00022348  0.52969445     1.35200
C143        C  0.99147336  0.89209011  0.50015647     0.79600
C144        C  0.99179851  0.10807347  0.49987479     0.79700
C145        C  0.10035553  0.00017612  0.00001046     0.79500
C146        C  0.88454146  0.99980362  0.00004274     0.79500
O147        O  0.00784087  0.08047245  0.71901395    -0.69600
O148        O  0.00761738  0.91897715  0.71920402    -0.69900
O149        O  0.92678292  0.99953357  0.71914524    -0.69700
O150        O  0.08813040  0.99991616  0.71907526    -0.69700
O151        O  0.08828357  0.00018981  0.78083748    -0.69700
O152        O  0.92693693  0.99980242  0.78089654    -0.69700
O153        O  0.00777338  0.91924726  0.78096354    -0.69600
O154        O  0.00799179  0.08074056  0.78077343    -0.69800
V155        V  0.00750140  0.99972868  0.72030986     1.35200
V156        V  0.00764904  0.99998883  0.77966734     1.35200
C157        C  0.00857955  0.10785205  0.74986255     0.79600
C158        C  0.00829776  0.89187031  0.75011503     0.79700
C159        C  0.89959671  0.99961676  0.75003186     0.79500
C160        C  0.11541112  0.00011655  0.74994566     0.79500
O161        O  0.93181445  0.58058112  0.00004077    -0.69600
O162        O  0.93201318  0.41891483  0.49985873    -0.69900
O163        O  0.93170225  0.49975248  0.55388380    -0.69700
O164        O  0.93169853  0.49971980  0.94602420    -0.69700
O165        O  0.02398444  0.50017048  0.94591015    -0.69700
O166        O  0.02398812  0.50021174  0.55412974    -0.69700
O167        O  0.02442395  0.41957705  0.99995171    -0.69600
O168        O  0.02423589  0.58084554  0.50010349    -0.69800
V169        V  0.93361695  0.49980930  0.49995490     1.35200
V170        V  0.02235305  0.50023593  0.50001873     1.35200
C171        C  0.97815096  0.60802189  0.50011000     0.79600
C172        C  0.97836792  0.39202913  0.49986702     0.79700
C173        C  0.97768417  0.49995816  0.57240316     0.79500
C174        C  0.97768072  0.49992969  0.92757048     0.79500
O175        O  0.97574053  0.41910286  0.74990553    -0.69600
O176        O  0.97560603  0.58030110  0.75006354    -0.69900
O177        O  0.97600105  0.49973124  0.69587528    -0.69700
O178        O  0.97600021  0.49969225  0.80409499    -0.70100
O179        O  0.06828610  0.50010175  0.80398167    -0.69700
O180        O  0.06828696  0.50017256  0.69612089    -0.69700
O181        O  0.06799121  0.58101723  0.75013990    -0.69600
O182        O  0.06812597  0.41924595  0.74996129    -0.69800
V183        V  0.97763661  0.49971235  0.74998626     1.35200
V184        V  0.06637279  0.50012419  0.75004981     1.35200
C185        C  0.02182177  0.39192015  0.74990255     0.79600
C186        C  0.02164181  0.60791139  0.75013022     0.79700
C187        C  0.02230484  0.49997391  0.67760172     0.79500
C188        C  0.02230365  0.49990951  0.82243504     0.79500
O189        O  0.57333706  0.95389893  0.49671501    -0.69600
O190        O  0.41188737  0.95423781  0.99563488    -0.69900
O191        O  0.49373032  0.96405790  0.94275468    -0.69700
O192        O  0.49215253  0.94420813  0.54961276    -0.69700
O193        O  0.49428546  0.03593593  0.55722764    -0.69700
O194        O  0.49259115  0.05578576  0.95039429    -0.69700
O195        O  0.41251232  0.04597584  0.50426168    -0.69600
O196        O  0.57370224  0.04580355  0.00337669    -0.69800
V197        V  0.49273213  0.95593359  0.49632243     1.35200
V198        V  0.49322230  0.04413183  0.50366671     1.35200
C199        C  0.60066573  0.99977682  0.00003894     0.79600
C200        C  0.38498781  0.00022171  0.49993209     0.79700
C201        C  0.49404537  0.01333797  0.92842496     0.79500
C202        C  0.49406436  0.98666495  0.57157173     0.79500
O203        O  0.42675150  0.04614761  0.75329964    -0.69600
O204        O  0.58808748  0.04564250  0.75439385    -0.69900
O205        O  0.50794314  0.05586255  0.70040633    -0.69700
O206        O  0.50620496  0.03586789  0.80725073    -0.69700
O207        O  0.50730325  0.94413941  0.79961063    -0.69700
O208        O  0.50579713  0.96414000  0.69276591    -0.69700
O209        O  0.58756068  0.95404654  0.74573123    -0.69600
O210        O  0.42622793  0.95416639  0.74660776    -0.69800
V211        V  0.50735668  0.04409828  0.75369467     1.35200
V212        V  0.50685171  0.95590529  0.74632235     1.35200
C213        C  0.39928675  0.00020726  0.74993824     0.79600
C214        C  0.61509350  0.99979221  0.75007612     0.79700
C215        C  0.50602640  0.01341940  0.67843521     0.79500
C216        C  0.50585905  0.98658761  0.82157994     0.79500
C217        C  0.49680466  0.02180297  0.88709810    -0.14300
C218        C  0.50308423  0.97812275  0.86290621    -0.29500
H219        H  0.49444603  0.06506422  0.87641319     0.14700
H220        H  0.50544101  0.93486090  0.87359120     0.15300
C221        C  0.49670822  0.97821378  0.61290441    -0.14300
C222        C  0.50338385  0.02188705  0.63710318    -0.29500
H223        H  0.49390829  0.93496181  0.62359090     0.14700
H224        H  0.50618437  0.06513957  0.62641848     0.15300
C225        C  0.97627814  0.49987370  0.88560052    -0.14300
C226        C  0.02370591  0.49996150  0.86440501    -0.29500
H227        H  0.93496747  0.49973545  0.87182265     0.14700
H228        H  0.06501653  0.50009745  0.87818290     0.15300
C229        C  0.97628078  0.49989113  0.61437081    -0.14300
C230        C  0.02370801  0.50003815  0.63563406    -0.29500
H231        H  0.93496913  0.49970532  0.62808965     0.14700
H232        H  0.06501889  0.50022297  0.62191541     0.15300
C233        C  0.17626563  0.00024420  0.74992243    -0.16400
C234        C  0.22741520  0.00031320  0.74990979     0.07700
C235        C  0.28729250  0.00034077  0.74990521     0.09600
C236        C  0.33843988  0.00031127  0.74991262    -0.17200
C237        C  0.67609869  0.99967685  0.75009529    -0.16400
C238        C  0.72733722  0.99959538  0.75009291     0.07700
C239        C  0.78735881  0.99953744  0.75007627     0.09600
C240        C  0.83859609  0.99953795  0.75005664    -0.17200
C241        C  0.01065696  0.83095949  0.75018173    -0.16400
C242        C  0.01401725  0.77984678  0.75021075     0.07700
C243        C  0.01826820  0.72002421  0.75021167     0.09600
C244        C  0.02092130  0.66886770  0.75018641    -0.17200
C245        C  0.01103731  0.16877804  0.74979718    -0.16400
C246        C  0.01441192  0.21991607  0.74977897     0.07700
C247        C  0.01861913  0.27977509  0.74979678     0.09600
C248        C  0.02120258  0.33095598  0.74983701    -0.17200
C249        C  0.16135598  0.00023788  0.99999971    -0.16400
C250        C  0.21272190  0.00041468  0.49993511     0.07700
C251        C  0.27261473  0.00020762  0.99996548     0.09600
C252        C  0.32398247  0.00032297  0.49991555    -0.17200
C253        C  0.66151277  0.99970065  0.00005315    -0.16400
C254        C  0.71278868  0.99970831  0.50009141     0.07700
C255        C  0.77266570  0.99970979  0.50008746     0.09600
C256        C  0.82368699  0.99971768  0.00005118    -0.17200
C257        C  0.97876448  0.66898722  0.50018223    -0.16400
C258        C  0.98125237  0.72007825  0.00020467     0.07700
C259        C  0.98544868  0.77993783  0.00022817     0.09600
C260        C  0.98899055  0.83116390  0.50022925    -0.17200
C261        C  0.97910258  0.33107262  0.49980395    -0.16400
C262        C  0.98181441  0.27983071  0.99980628     0.07700
C263        C  0.98605624  0.22000785  0.99980714     0.09600
C264        C  0.98943393  0.16898442  0.49980060    -0.17200
loop_ 
_geom_bond_atom_site_label_1 
_geom_bond_atom_site_label_2 
_geom_bond_distance 
_geom_bond_site_symmetry_2 
_ccdc_geom_bond_type 
O1            V9   1.899       .  S
O1          C143   1.262       .  A
O2            V9   1.899   1_545  S
O2          C144   1.262       .  A
O3            V9   1.901   1_445  S
O3           C13   1.263       .  A
O4            V9   1.899       .  S
O4           C14   1.262       .  A
O5           V10   1.899   1_565  S
O5          C146   1.262       .  A
O6           V10   1.901   1_455  S
O6          C145   1.263       .  A
O7           V10   1.899       .  S
O7           C12   1.262   1_554  A
O8           V10   1.899   1_565  S
O8           C11   1.262       .  A
V9          V142   2.091   1_565  T
V10         V141   2.091   1_544  T
C11         O133   1.262   1_554  A
C11         C128   1.434       .  S
C12         O134   1.262       .  A
C12         C132   1.434       .  S
C13         O138   1.263       .  A
C13         C117   1.436       .  S
C14         O137   1.262   1_565  A
C14         C124   1.433       .  S
O15          V23   1.899   1_545  S
O15          C25   1.262       .  A
O16          V23   1.899       .  S
O16          C26   1.262       .  A
O17          V23   1.901   1_655  S
O17          C27   1.263       .  A
O18          V23   1.899       .  S
O18          C28   1.262   1_565  A
O19          V24   1.899       .  S
O19          C28   1.262       .  A
O20          V24   1.901   1_665  S
O20          C27   1.263       .  A
O21          V24   1.899   1_565  S
O21          C26   1.262       .  A
O22          V24   1.899       .  S
O22          C25   1.262       .  A
V23          V24   2.091   1_565  T
C25         C113   1.434       .  S
C26         C109   1.434       .  S
C27         C108   1.436       .  S
C28         C101   1.433       .  S
O29         V169   1.902       .  S
O29         C171   1.263       .  A
O30          V37   1.902       .  S
O30          C40   1.263       .  A
O31          V37   1.900   1_554  S
O31          C41   1.263       .  A
O32         V169   1.900       .  S
O32          C42   1.263       .  A
O33         V170   1.906       .  S
O33          C42   1.267   1_455  A
O34          V38   1.906       .  S
O34          C41   1.267   1_455  A
O35         V170   1.896       .  S
O35         C172   1.261   1_455  A
O36          V38   1.896       .  S
O36          C39   1.261   1_455  A
V37         O161   1.902   1_556  S
V37         O164   1.900       .  S
V37          V38   2.089   1_656  T
V38         O165   1.906   1_554  S
V38         O167   1.896   1_554  S
C39         O161   1.263       .  A
C39         C125   1.434       .  S
C40         O167   1.261   1_655  A
C40         C129   1.434       .  S
C41          C97   1.479       .  S
C42          C93   1.479       .  S
O43          V51   1.896       .  S
O43          C53   1.261   1_655  A
O44          V51   1.896       .  S
O44          C54   1.261   1_655  A
O45          V51   1.906       .  S
O45          C55   1.267   1_655  A
O46          V51   1.906       .  S
O46          C56   1.267   1_655  A
O47          V52   1.900       .  S
O47          C56   1.263       .  A
O48          V52   1.900       .  S
O48          C55   1.263       .  A
O49          V52   1.902       .  S
O49          C54   1.263       .  A
O50          V52   1.902       .  S
O50          C53   1.263       .  A
V51          V52   2.089   1_655  T
C53         C116   1.434       .  S
C54         C112   1.434       .  S
C55          C98   1.479       .  S
C56          C94   1.479       .  S
O57          V65   1.899       .  S
O57         C199   1.262   1_556  A
O58         V197   1.901       .  S
O58         C200   1.263   1_565  A
O59         V197   1.897       .  S
O59          C69   1.264   1_565  A
O60          V65   1.898   1_554  S
O60          C70   1.263       .  A
O61          V66   1.897       .  S
O61          C70   1.265   1_545  A
O62         V198   1.898       .  S
O62          C69   1.263       .  A
O63          V66   1.901       .  S
O63          C68   1.263   1_554  A
O64         V198   1.899       .  S
O64          C67   1.262   1_545  A
V65         O190   1.901       .  S
V65         O191   1.897       .  S
V65          V66   2.090   1_566  T
V66         O194   1.898   1_554  S
V66         O196   1.899       .  S
C67         O189   1.262       .  A
C67         C121   1.433       .  S
C68         O190   1.263   1_545  A
C68         C120   1.436       .  S
C69          C85   1.471       .  S
C70          C89   1.471       .  S
O71          V79   1.899       .  S
O71          C81   1.262       .  A
O72          V79   1.901       .  S
O72          C82   1.263   1_545  A
O73          V79   1.898       .  S
O73          C83   1.263       .  A
O74          V79   1.897       .  S
O74          C84   1.264   1_545  A
O75          V80   1.898       .  S
O75          C84   1.263       .  A
O76          V80   1.897       .  S
O76          C83   1.265   1_565  A
O77          V80   1.901       .  S
O77          C82   1.263       .  A
O78          V80   1.899       .  S
O78          C81   1.262   1_565  A
V79          V80   2.090   1_545  T
C81         C104   1.433       .  S
C82         C105   1.436       .  S
C83          C90   1.471       .  S
C84          C86   1.471       .  S
C85          C86   1.343   1_545  D
C85          H87   1.087       .  S
C86          H88   1.087       .  S
C89          C90   1.343   1_565  D
C89          H91   1.087       .  S
C90          H92   1.087       .  S
C93          C94   1.344   1_655  D
C93          H95   1.087       .  S
C94          H96   1.087       .  S
C97          C98   1.344   1_655  D
C97          H99   1.087       .  S
C98         H100   1.087       .  S
C101        C102   1.204       .  T
C102        C103   1.410       .  S
C103        C104   1.204       .  T
C105        C106   1.206       .  T
C106        C107   1.413       .  S
C107        C108   1.206       .  T
C109        C110   1.205       .  T
C110        C111   1.411       .  S
C111        C112   1.205       .  T
C113        C114   1.205       .  T
C114        C115   1.411       .  S
C115        C116   1.205       .  T
C117        C250   1.206       .  T
C118        C249   1.206       .  T
C118        C251   1.413       .  S
C119        C252   1.206       .  T
C119        C250   1.413       .  S
C120        C251   1.206       .  T
C121        C254   1.204       .  T
C122        C253   1.204       .  T
C122        C123   1.410       .  S
C123        C256   1.204       .  T
C124        C255   1.204       .  T
C125        C258   1.205       .  T
C126        C257   1.205       .  T
C126        C127   1.411       .  S
C127        C260   1.205       .  T
C128        C259   1.205       .  T
C129        C262   1.205       .  T
C130        C261   1.205       .  T
C130        C131   1.411       .  S
C131        C264   1.205       .  T
C132        C263   1.205       .  T
O133        V141   1.899       .  S
O134        V141   1.899   1_545  S
O135        V141   1.901   1_445  S
O135        C145   1.263   1_556  A
O136        V141   1.899       .  S
O136        C146   1.262   1_556  A
O137        V142   1.899       .  S
O138        V142   1.901   1_455  S
O139        V142   1.899       .  S
O139        C144   1.262       .  A
O140        V142   1.899   1_565  S
O140        C143   1.262       .  A
C143        C260   1.434       .  S
C144        C264   1.434       .  S
C145        C249   1.436   1_554  S
C146        C256   1.433       .  S
O147        V155   1.899   1_545  S
O147        C157   1.262       .  A
O148        V155   1.899       .  S
O148        C158   1.262       .  A
O149        V155   1.901   1_655  S
O149        C159   1.263       .  A
O150        V155   1.899       .  S
O150        C160   1.262   1_565  A
O151        V156   1.899   1_545  S
O151        C160   1.262       .  A
O152        V156   1.901   1_655  S
O152        C159   1.263       .  A
O153        V156   1.899       .  S
O153        C158   1.262       .  A
O154        V156   1.899   1_545  S
O154        C157   1.262       .  A
V155        V156   2.091       .  T
C157        C245   1.434       .  S
C158        C241   1.434       .  S
C159        C240   1.436       .  S
C160        C233   1.433       .  S
O162        V169   1.902       .  S
O162        C172   1.263       .  A
O163        V169   1.900       .  S
O163        C173   1.263       .  A
O164        C174   1.263       .  A
O165        C174   1.267   1_455  A
O166        V170   1.906       .  S
O166        C173   1.267   1_455  A
O168        V170   1.896       .  S
O168        C171   1.261   1_455  A
V169        V170   2.089   1_655  T
C171        C257   1.434       .  S
C172        C261   1.434       .  S
C173        C229   1.479       .  S
C174        C225   1.479       .  S
O175        V183   1.896       .  S
O175        C185   1.261   1_655  A
O176        V183   1.896       .  S
O176        C186   1.261   1_655  A
O177        V183   1.906       .  S
O177        C187   1.267   1_655  A
O178        V183   1.906       .  S
O178        C188   1.267   1_655  A
O179        V184   1.900       .  S
O179        C188   1.263       .  A
O180        V184   1.900       .  S
O180        C187   1.263       .  A
O181        V184   1.902       .  S
O181        C186   1.263       .  A
O182        V184   1.902       .  S
O182        C185   1.263       .  A
V183        V184   2.089   1_655  T
C185        C248   1.434       .  S
C186        C244   1.434       .  S
C187        C230   1.479       .  S
C188        C226   1.479       .  S
O189        V197   1.899       .  S
O191        C201   1.265   1_565  A
O192        V197   1.898       .  S
O192        C202   1.263       .  A
O193        V198   1.897       .  S
O193        C202   1.265   1_545  A
O194        C201   1.263       .  A
O195        V198   1.901       .  S
O195        C200   1.263       .  A
O196        C199   1.262   1_545  A
V197        V198   2.090   1_565  T
C199        C253   1.433       .  S
C200        C252   1.436       .  S
C201        C217   1.471       .  S
C202        C221   1.471       .  S
O203        V211   1.899       .  S
O203        C213   1.262       .  A
O204        V211   1.901       .  S
O204        C214   1.263   1_545  A
O205        V211   1.898       .  S
O205        C215   1.263       .  A
O206        V211   1.897       .  S
O206        C216   1.265   1_545  A
O207        V212   1.898       .  S
O207        C216   1.263       .  A
O208        V212   1.897       .  S
O208        C215   1.265   1_565  A
O209        V212   1.901       .  S
O209        C214   1.263       .  A
O210        V212   1.899       .  S
O210        C213   1.262   1_565  A
V211        V212   2.090   1_545  T
C213        C236   1.433       .  S
C214        C237   1.436       .  S
C215        C222   1.471       .  S
C216        C218   1.471       .  S
C217        C218   1.343   1_545  D
C217        H219   1.087       .  S
C218        H220   1.087       .  S
C221        C222   1.343   1_565  D
C221        H223   1.087       .  S
C222        H224   1.087       .  S
C225        C226   1.344   1_655  D
C225        H227   1.087       .  S
C226        H228   1.087       .  S
C229        C230   1.344   1_655  D
C229        H231   1.087       .  S
C230        H232   1.087       .  S
C233        C234   1.204       .  T
C234        C235   1.410       .  S
C235        C236   1.204       .  T
C237        C238   1.206       .  T
C238        C239   1.413       .  S
C239        C240   1.206       .  T
C241        C242   1.205       .  T
C242        C243   1.411       .  S
C243        C244   1.205       .  T
C245        C246   1.205       .  T
C246        C247   1.411       .  S
C247        C248   1.205       .  T
C254        C255   1.410       .  S
C258        C259   1.411       .  S
C262        C263   1.411       .  S
