geometry optimzed in LAMMPS
_audit_creation_date              2020-11-30 
_audit_creation_method            'lammps2cif' 
_symmetry_space_group_name_H-M    'P1' 
_symmetry_Int_Tables_number       1 
_symmetry_cell_setting            triclinic 
loop_ 
_symmetry_equiv_pos_as_xyz 
  x,y,z 
_cell_length_a                    23.447813746066696 
_cell_length_b                    23.438241597595997 
_cell_length_c                    39.57757672351379 
_cell_angle_alpha                 89.89622434261601 
_cell_angle_beta                  89.87461274170502 
_cell_angle_gamma                 88.89770595686703 
loop_ 
_atom_site_label 
_atom_site_type_symbol 
_atom_site_fract_x 
_atom_site_fract_y 
_atom_site_fract_z 
_atom_site_charge 
N1          N  0.24741537  0.85752397  0.67671807    -0.27180
N2          N  0.20237425  0.83279357  0.68994511    -0.35040
C3          C  0.18996057  0.85698839  0.71977528     0.01160
C4          C  0.22959296  0.89834808  0.72612631     0.07180
C5          C  0.26565796  0.89771511  0.69832111    -0.05920
H6          H  0.15852078  0.84109586  0.73730246     0.07850
H7          H  0.30370770  0.92243098  0.69483959     0.09050
Cu8        Cu  0.17495470  0.75362230  0.67528962     0.44170
Cu9        Cu  0.28249747  0.82882609  0.63144623     0.41990
Cu10       Cu  0.27515217  0.67564034  0.62535467     0.43880
N11         N  0.19773340  0.66987207  0.68485703    -0.34570
N12         N  0.24072866  0.64333461  0.66954766    -0.28820
C13         C  0.25865552  0.59922364  0.68898838    -0.04920
C14         C  0.22430169  0.59783203  0.71747955     0.07290
C15         C  0.18610126  0.64287717  0.71384326     0.01090
H16         H  0.29578636  0.57257488  0.68380143     0.08740
H17         H  0.15706813  0.65928885  0.73293383     0.07820
N18         N  0.28712723  0.72839794  0.58385259    -0.36020
N19         N  0.29082812  0.78447842  0.58617750    -0.28200
C20         C  0.29228052  0.80687639  0.55487502    -0.03440
C21         C  0.28925429  0.76284756  0.53165316     0.05170
C22         C  0.28568171  0.71372104  0.55100906     0.03270
H23         H  0.29172108  0.85211017  0.54948619     0.08370
H24         H  0.28025511  0.67068138  0.54191107     0.07210
N25         N  0.36101055  0.74537151  0.24151660    -0.27180
N26         N  0.33639777  0.70030492  0.22839868    -0.35040
C27         C  0.36080916  0.68785413  0.19860857     0.01160
C28         C  0.40222325  0.72748077  0.19217138     0.07180
C29         C  0.40137283  0.76359070  0.21988578    -0.05920
H30         H  0.34508066  0.65635534  0.18117112     0.07850
H31         H  0.42609389  0.80162556  0.22329227     0.09050
Cu32       Cu  0.25719985  0.67288236  0.24318846     0.44170
Cu33       Cu  0.33184229  0.78028727  0.28671685     0.41990
Cu34       Cu  0.17835497  0.77409323  0.29195693     0.43880
N35         N  0.17365586  0.69549924  0.23315915    -0.34570
N36         N  0.14686372  0.73884757  0.24793725    -0.28820
C37         C  0.10306722  0.75628476  0.22817614    -0.04920
C38         C  0.10220218  0.72129257  0.20001795     0.07290
C39         C  0.14717923  0.68319071  0.20420630     0.01090
H40         H  0.07629144  0.79349998  0.23290869     0.08740
H41         H  0.16394169  0.65372177  0.18548268     0.07820
N42         N  0.23040133  0.78418143  0.33380953    -0.36020
N43         N  0.28657063  0.78717138  0.33182826    -0.28200
C44         C  0.30829715  0.78680269  0.36325858    -0.03440
C45         C  0.26382957  0.78254563  0.38617942     0.05170
C46         C  0.21497666  0.78148539  0.36654299     0.03270
H47         H  0.35337809  0.78621024  0.36895568     0.08370
H48         H  0.17151451  0.77736717  0.37525426     0.07210
N49         N  0.16287580  0.51715335  0.92247772    -0.27180
N50         N  0.13612261  0.52443036  0.89341063    -0.35040
C51         C  0.07988837  0.51926328  0.89797332     0.01160
C52         C  0.06997368  0.50771156  0.93155095     0.07180
C53         C  0.12355215  0.50661213  0.94655296    -0.05920
H54         H  0.04893401  0.52117050  0.87782368     0.07850
H55         H  0.13335698  0.49548266  0.97247967     0.09050
Cu56       Cu  0.17516099  0.53288389  0.84744267     0.44170
Cu57       Cu  0.25204567  0.51735995  0.92529331     0.41990
Cu58       Cu  0.32271120  0.53494938  0.84060683     0.43880
N59         N  0.21501488  0.54161177  0.80172409    -0.34570
N60         N  0.27092182  0.54255746  0.79837817    -0.28820
C61         C  0.28364817  0.55691771  0.76626125    -0.04920
C62         C  0.23281599  0.56573962  0.74895788     0.07290
C63         C  0.19040209  0.55559707  0.77228973     0.01090
H64         H  0.32606154  0.56626694  0.75728466     0.08740
H65         H  0.14510156  0.56300817  0.76899458     0.07820
N66         N  0.36422725  0.52658584  0.88664169    -0.36020
N67         N  0.34021039  0.51971539  0.91669209    -0.28200
C68         C  0.38180070  0.51017092  0.93961532    -0.03440
C69         C  0.43404812  0.51130216  0.92320394     0.05170
C70         C  0.42107699  0.52174929  0.88977200     0.03270
H71         H  0.37443176  0.49921777  0.96583168     0.08370
H72         H  0.45054289  0.52281647  0.86877308     0.07210
N73         N  0.51865648  0.16226537  0.92227671    -0.27180
N74         N  0.52635712  0.13545377  0.89324825    -0.35040
C75         C  0.52178251  0.07914198  0.89788177     0.01160
C76         C  0.51022509  0.06923446  0.93146387     0.07180
C77         C  0.50845443  0.12290160  0.94638667    -0.05920
H78         H  0.52401655  0.04809767  0.87777157     0.07850
H79         H  0.49704722  0.13270563  0.97227687     0.09050
Cu80       Cu  0.53454709  0.17444063  0.84721716     0.44170
Cu81       Cu  0.51767323  0.25152717  0.92504178     0.41990
Cu82       Cu  0.53329660  0.32218242  0.84031072     0.43880
N83         N  0.54299928  0.21454472  0.80152532    -0.34390
N84         N  0.54270975  0.27050574  0.79819158    -0.28820
C85         C  0.55736976  0.28361209  0.76618270    -0.04920
C86         C  0.56770701  0.23298179  0.74892449     0.07290
C87         C  0.55804335  0.19027005  0.77216042     0.01090
H88         H  0.56586487  0.32627953  0.75728839     0.08740
H89         H  0.56646893  0.14510326  0.76888278     0.07820
N90         N  0.52456494  0.36377966  0.88625189    -0.36020
N91         N  0.51864180  0.33978677  0.91638024    -0.28200
C92         C  0.50947584  0.38142169  0.93934842    -0.03440
C93         C  0.50981184  0.43364201  0.92284908     0.05170
C94         C  0.51940591  0.42063263  0.88934238     0.03270
H95         H  0.49968538  0.37410019  0.96573167     0.08370
H96         H  0.52017190  0.45006837  0.86832452     0.07210
N97         N  0.48579279  0.66316978  0.98642888    -0.27180
N98         N  0.47738244  0.63553285  0.01507332    -0.35040
C99         C  0.48304828  0.57926552  0.00979250     0.01160
C100        C  0.49568258  0.57043962  0.97615542     0.07180
C101        C  0.49729804  0.62458762  0.96195606    -0.05920
H102        H  0.48087068  0.54740651  0.02949282     0.07850
H103        H  0.50955369  0.63517980  0.93635807     0.09050
Cu104      Cu  0.46603404  0.67382935  0.06132420     0.44170
Cu105      Cu  0.48664370  0.75218748  0.98447555     0.41990
Cu106      Cu  0.47197023  0.82284358  0.06891428     0.43880
N107        N  0.45574322  0.71468976  0.10688105    -0.34570
N108        N  0.45834965  0.77052064  0.11051435    -0.28820
C109        C  0.44420638  0.78405058  0.14263162    -0.04920
C110        C  0.43170281  0.73396227  0.15962052     0.07290
C111        C  0.43957157  0.69106478  0.13613338     0.01090
H112        H  0.43861838  0.82712123  0.15199026     0.08740
H113        H  0.43053115  0.64632341  0.13939481     0.07820
N114        N  0.48241150  0.86457206  0.02292319    -0.36020
N115        N  0.48722568  0.84018291  0.99284125    -0.28200
C116        C  0.49648497  0.88104261  0.96955356    -0.03440
C117        C  0.49755593  0.93335467  0.98572917     0.05170
C118        C  0.48863267  0.92111169  0.01946476     0.03270
H119        H  0.50520003  0.87293821  0.94310911     0.08370
H120        H  0.48847948  0.95076898  0.04031863     0.07210
N121        N  0.66404678  0.48264257  0.98560955    -0.27180
N122        N  0.63623986  0.47051079  0.01369754    -0.35040
C123        C  0.57998991  0.47619043  0.00842489     0.01160
C124        C  0.57142364  0.49288481  0.97539668     0.07180
C125        C  0.62563057  0.49677228  0.96153933    -0.05920
H126        H  0.54795861  0.47160993  0.02786232     0.07850
H127        H  0.63633923  0.51235848  0.93660929     0.09050
Cu128      Cu  0.67433609  0.45595573  0.05963968     0.44170
Cu129      Cu  0.75296070  0.48474933  0.98409397     0.41990
Cu130      Cu  0.82296791  0.46724007  0.06844389     0.43880
N131        N  0.71454745  0.44706819  0.10542651    -0.34570
N132        N  0.77006147  0.45190760  0.10957289    -0.28820
C133        C  0.78310196  0.43920748  0.14196009    -0.04920
C134        C  0.73303684  0.42535787  0.15856839     0.07290
C135        C  0.69066247  0.43091668  0.13459674     0.01090
H136        H  0.82598696  0.43583707  0.15186387     0.08740
H137        H  0.64615170  0.42072237  0.13757014     0.07820
N138        N  0.86508478  0.47871855  0.02265456    -0.36020
N139        N  0.84084053  0.48461780  0.99260368    -0.28200
C140        C  0.88181703  0.49415602  0.96944494    -0.03440
C141        C  0.93407729  0.49425331  0.98565870     0.05170
C142        C  0.92168611  0.48448144  0.01929793     0.03270
H143        H  0.87385458  0.50369617  0.94308705     0.08370
H144        H  0.95129720  0.48342557  0.04016298     0.07210
C145        C  0.01835101  0.01519007  0.95658635     0.00670
C146        C  0.99080675  0.98765061  0.98174018     0.00670
N147        N  0.02047271  0.66080048  0.99498696    -0.27180
N148        N  0.02962719  0.63341264  0.02372320    -0.35040
C149        C  0.02434918  0.57722201  0.01897958     0.01160
C150        C  0.01083783  0.56807097  0.98563781     0.07180
C151        C  0.00861548  0.62198991  0.97097174    -0.05920
H152        H  0.02718098  0.54576704  0.03891433     0.07850
H153        H  0.99569506  0.63236624  0.94541609     0.09050
Cu154      Cu  0.03982145  0.67169488  0.06970127     0.44170
Cu155      Cu  0.01948194  0.75004660  0.99258157     0.41990
Cu156      Cu  0.03557910  0.81961684  0.07732567     0.43880
N157        N  0.04756130  0.71123190  0.11551152    -0.34570
N158        N  0.04586334  0.76712836  0.11915223    -0.28820
C159        C  0.05951690  0.77986257  0.15131372    -0.04920
C160        C  0.07065639  0.72907760  0.16833910     0.07290
C161        C  0.06255302  0.68665731  0.14481327     0.01090
H162        H  0.06659476  0.82254957  0.16053755     0.08740
H163        H  0.07169292  0.64157093  0.14793120     0.07820
N164        N  0.02672898  0.86184246  0.03149119    -0.36020
N165        N  0.02069954  0.83814496  0.00135711    -0.28200
C166        C  0.01145746  0.87996546  0.97846118    -0.03440
C167        C  0.01186951  0.93203084  0.99499467     0.05170
C168        C  0.02155398  0.91872989  0.02846579     0.03270
H169        H  0.00142646  0.87285954  0.95213019     0.08370
H170        H  0.02222394  0.94798785  0.04951101     0.07210
C171        C  0.01577002  0.48684631  0.94581530     0.00670
C172        C  0.98887258  0.51430440  0.97161686     0.00670
C173        C  0.48939351  0.48935960  0.93628087     0.00670
C174        C  0.51742389  0.51628170  0.96134931     0.00670
C175        C  0.51745736  0.98808349  0.97147756     0.00670
C176        C  0.48971065  0.01489614  0.94576351     0.00670
N177        N  0.66397120  0.01940603  0.99472029    -0.27180
N178        N  0.63650096  0.02984981  0.02328966    -0.35040
C179        C  0.58029419  0.02492131  0.01850028     0.01160
C180        C  0.57123548  0.01029302  0.98531291     0.07180
C181        C  0.62521123  0.00703362  0.97078924    -0.05920
H182        H  0.54873828  0.02861146  0.03834283     0.07850
H183        H  0.63563061  0.99302805  0.94543358     0.09050
Cu184      Cu  0.67467679  0.04084954  0.06924741     0.44170
Cu185      Cu  0.75321489  0.01735335  0.99243584     0.41990
Cu186      Cu  0.82262110  0.03386367  0.07707669     0.43880
N187        N  0.71429486  0.04800493  0.11509138    -0.34570
N188        N  0.77013665  0.04524934  0.11879238    -0.28820
C189        C  0.78301495  0.05829656  0.15102444    -0.04920
C190        C  0.73238923  0.07013928  0.16804631     0.07290
C191        C  0.68989776  0.06303378  0.14444487     0.01090
H192        H  0.82580172  0.06423528  0.16036380     0.08740
H193        H  0.64492024  0.07262388  0.14760201     0.07820
N194        N  0.86495077  0.02417407  0.03134806    -0.36020
N195        N  0.84130634  0.01799603  0.00121926    -0.28200
C196        C  0.88313757  0.00838447  0.97837544    -0.03440
C197        C  0.93514666  0.00870808  0.99494812     0.05170
C198        C  0.92180533  0.01872538  0.02838160     0.03270
H199        H  0.87607052  0.99827708  0.95205041     0.08370
H200        H  0.95100851  0.01955562  0.04943747     0.07210
N201        N  0.98567657  0.16207341  0.93189991    -0.27180
N202        N  0.97584608  0.13449656  0.90349445    -0.35040
C203        C  0.98152284  0.07821401  0.90876896     0.01160
C204        C  0.99581883  0.06933075  0.94214071     0.07180
C205        C  0.99826867  0.12343594  0.95620650    -0.05920
H206        H  0.97835979  0.04640275  0.88917543     0.07850
H207        H  0.01181039  0.13395175  0.98152653     0.09050
Cu208      Cu  0.96351919  0.17288048  0.85738125     0.44170
Cu209      Cu  0.98660187  0.25105161  0.93360134     0.41990
Cu210      Cu  0.96840195  0.32185888  0.84925042     0.43880
N211        N  0.95389765  0.21333769  0.81167160    -0.34570
N212        N  0.95614636  0.26916185  0.80778263    -0.28820
C213        C  0.94264525  0.28227877  0.77551934    -0.04920
C214        C  0.93095287  0.23190789  0.75873619     0.07290
C215        C  0.93858467  0.18930467  0.78247513     0.01090
H216        H  0.93679930  0.32521944  0.76592064     0.08740
H217        H  0.92984892  0.14448055  0.77941698     0.07820
N218        N  0.97883735  0.36355850  0.89515485    -0.36020
N219        N  0.98544870  0.33905963  0.92513211    -0.28200
C220        C  0.99522890  0.37990711  0.94822380    -0.03440
C221        C  0.99467720  0.43235432  0.93206113     0.05170
C222        C  0.98419316  0.42019653  0.89852000     0.03270
H223        H  0.00563166  0.37172913  0.97444102     0.08370
H224        H  0.98272093  0.44995904  0.87766693     0.07210
N225        N  0.16522416  0.98297542  0.93175935    -0.27180
N226        N  0.13768489  0.97310979  0.90334744    -0.35040
C227        C  0.08140335  0.97855045  0.90867917     0.01160
C228        C  0.07248872  0.99270244  0.94208877     0.07180
C229        C  0.12658087  0.99534462  0.95610613    -0.05920
H230        H  0.04959219  0.97533018  0.88910326     0.07850
H231        H  0.13707501  0.00889652  0.98142874     0.09050
Cu232      Cu  0.17610911  0.96084957  0.85715991     0.44170
Cu233      Cu  0.25415367  0.98429574  0.93352426     0.41990
Cu234      Cu  0.32517856  0.96581896  0.84936070     0.43880
N235        N  0.21701704  0.95079262  0.81154129    -0.34570
N236        N  0.27285936  0.95302909  0.80782987    -0.28820
C237        C  0.28634356  0.93928571  0.77564902    -0.04920
C238        C  0.23620748  0.92743183  0.75870252     0.07290
C239        C  0.19333453  0.93526487  0.78227703     0.01090
H240        H  0.32937919  0.93351164  0.76620575     0.08740
H241        H  0.14854572  0.92661264  0.77905702     0.07820
N242        N  0.36673435  0.97691928  0.89521267    -0.36020
N243        N  0.34215760  0.98363502  0.92516180    -0.28200
C244        C  0.38289049  0.99386679  0.94823683    -0.03440
C245        C  0.43533298  0.99349162  0.93207846     0.05170
C246        C  0.42329965  0.98265973  0.89856794     0.03270
H247        H  0.37462343  0.00442045  0.97442820     0.08370
H248        H  0.45309244  0.98121269  0.87772673     0.07210
N249        N  0.86194537  0.24177861  0.67651942    -0.27180
N250        N  0.83553927  0.19829983  0.69038495    -0.35040
C251        C  0.85906156  0.18645275  0.72046645     0.01160
C252        C  0.90174574  0.22491693  0.72626531     0.07180
C253        C  0.90257055  0.25967756  0.69791194    -0.05920
H254        H  0.84197952  0.15641304  0.73845592     0.07850
H255        H  0.92862296  0.29666537  0.69387772     0.09050
Cu256      Cu  0.75557253  0.17336995  0.67569078     0.44170
Cu257      Cu  0.83437091  0.27529938  0.63074771     0.41990
Cu258      Cu  0.68048108  0.27791081  0.62644454     0.43880
N259        N  0.67240287  0.19847633  0.68503371    -0.34570
N260        N  0.64720027  0.24277491  0.67023183    -0.28820
C261        C  0.60305747  0.26078085  0.68962961    -0.04920
C262        C  0.60030356  0.22521080  0.71755495     0.07290
C263        C  0.64454865  0.18618444  0.71362028     0.01090
H264        H  0.57722351  0.29861288  0.68479426     0.08740
H265        H  0.65985462  0.15584664  0.73230738     0.07820
N266        N  0.73273688  0.28459106  0.58423112    -0.36020
N267        N  0.78907358  0.28258187  0.58587883    -0.28200
C268        C  0.81047410  0.27887174  0.55439531    -0.03440
C269        C  0.76550466  0.27838965  0.53179395     0.05170
C270        C  0.71685280  0.28275624  0.55158802     0.03270
H271        H  0.85541872  0.27502935  0.54851127     0.08370
H272        H  0.67314309  0.28123565  0.54301113     0.07210
N273        N  0.74426400  0.35862154  0.24154704    -0.27180
N274        N  0.69963097  0.33290249  0.22872599    -0.35040
C275        C  0.68719076  0.35583941  0.19854078     0.01160
C276        C  0.72641731  0.39741559  0.19156762     0.07180
C277        C  0.76223194  0.39824250  0.21937342    -0.05920
H278        H  0.65616514  0.33886214  0.18124108     0.07850
H279        H  0.80004798  0.42340047  0.22245017     0.09050
Cu280      Cu  0.67373426  0.25371205  0.24455169     0.44170
Cu281      Cu  0.77933395  0.33105159  0.28690713     0.41990
Cu282      Cu  0.77971935  0.17726230  0.29158223     0.43880
N283        N  0.69842980  0.17083898  0.23409693    -0.34570
N284        N  0.74330032  0.14526275  0.24799174    -0.28820
C285        C  0.76115147  0.10228994  0.22769881    -0.04920
C286        C  0.72493752  0.10072420  0.20010865     0.07290
C287        C  0.68562980  0.14437696  0.20521825     0.01090
H288        H  0.79943015  0.07670134  0.23163198     0.08740
H289        H  0.65485533  0.16055415  0.18707876     0.07820
N290        N  0.78772854  0.22935345  0.33364399    -0.36020
N291        N  0.78683918  0.28571379  0.33185021    -0.28200
C292        C  0.78374478  0.30720997  0.36328963    -0.03440
C293        C  0.78232790  0.26228224  0.38603306     0.05170
C294        C  0.78564108  0.21353968  0.36633512     0.03270
H295        H  0.78080813  0.35223601  0.36903167     0.08370
H296        H  0.78311809  0.16987510  0.37501762     0.07210
C297        C  0.77546091  0.26530538  0.42327076    -0.00050
C298        C  0.80840034  0.22834641  0.44360509    -0.11920
C299        C  0.80528999  0.23123970  0.47893393     0.02190
C300        C  0.76845766  0.27172835  0.49457706    -0.00130
C301        C  0.73347347  0.30674163  0.47426164    -0.11860
C302        C  0.73666300  0.30394789  0.43893318     0.02070
H303        H  0.83726423  0.19758034  0.43185602     0.15050
H304        H  0.70407074  0.33697052  0.48603567     0.15050
C305        C  0.69791996  0.33954046  0.41950316     0.36710
C306        C  0.83856028  0.19054371  0.49841791     0.36610
N307        N  0.66661556  0.36794113  0.40401381    -0.43640
N308        N  0.86502912  0.15767228  0.51397360    -0.43630
C309        C  0.26894838  0.77689522  0.42346063    -0.00050
C310        C  0.30923766  0.81005844  0.44024992    -0.11920
C311        C  0.31659398  0.80610663  0.47530594     0.02190
C312        C  0.28358400  0.76786255  0.49438098    -0.00130
C313        C  0.24403319  0.73381821  0.47754358    -0.11860
C314        C  0.23629184  0.73809879  0.44248240     0.02070
H315        H  0.33501511  0.83946392  0.42591361     0.15050
H316        H  0.21864357  0.70403226  0.49187100     0.15050
C317        C  0.19643896  0.70030051  0.42669147     0.36710
C318        C  0.36000837  0.84012947  0.49078335     0.36610
N319        N  0.16450601  0.66980928  0.41418791    -0.43640
N320        N  0.39489804  0.86735583  0.50315273    -0.43630
loop_ 
_geom_bond_atom_site_label_1 
_geom_bond_atom_site_label_2 
_geom_bond_distance 
_geom_bond_site_symmetry_2 
_ccdc_geom_bond_type 
N1            N2   1.321       .  A
N1            C5   1.350       .  A
N1           Cu9   2.078       .  S
N2            C3   1.340       .  A
N2           Cu8   2.060       .  S
C3            C4   1.380       .  A
C3            H6   1.082       .  S
C4            C5   1.386       .  A
C4          C238   1.469       .  S
C5            H7   1.081       .  S
Cu8          N11   2.059       .  S
Cu9          N19   2.080       .  S
Cu10         N12   2.073       .  S
Cu10         N18   2.076       .  S
N11          N12   1.321       .  A
N11          C15   1.339       .  A
N12          C13   1.349       .  A
C13          C14   1.385       .  A
C13          H16   1.081       .  S
C14          C15   1.379       .  A
C14          C62   1.466       .  S
C15          H17   1.082       .  S
N18          N19   1.322       .  A
N18          C22   1.346       .  A
N19          C20   1.345       .  A
C20          C21   1.386       .  A
C20          H23   1.081       .  S
C21          C22   1.386       .  A
C21         C312   1.486       .  S
C22          H24   1.082       .  S
N25          N26   1.321       .  A
N25          C29   1.350       .  A
N25         Cu33   2.078       .  S
N26          C27   1.340       .  A
N26         Cu32   2.060       .  S
C27          C28   1.380       .  A
C27          H30   1.082       .  S
C28          C29   1.387       .  A
C28         C110   1.470       .  S
C29          H31   1.081       .  S
Cu32         N35   2.059       .  S
Cu33         N43   2.080       .  S
Cu34         N36   2.073       .  S
Cu34         N42   2.076       .  S
N35          N36   1.321       .  A
N35          C39   1.339       .  A
N36          C37   1.349       .  A
C37          C38   1.385       .  A
C37          H40   1.081       .  S
C38          C39   1.379       .  A
C38         C160   1.466       .  S
C39          H41   1.082       .  S
N42          N43   1.322       .  A
N42          C46   1.346       .  A
N43          C44   1.345       .  A
C44          C45   1.385       .  A
C44          H47   1.081       .  S
C45          C46   1.386       .  A
C45         C309   1.486       .  S
C46          H48   1.081       .  S
N49          N50   1.321       .  A
N49          C53   1.350       .  A
N49         Cu57   2.094       .  S
N50          C51   1.338       .  A
N50         Cu56   2.046       .  S
C51          C52   1.376       .  A
C51          H54   1.080       .  S
C52          C53   1.390       .  A
C52         C171   1.481       .  S
C53          H55   1.082       .  S
Cu56         N59   2.046       .  S
Cu57         N67   2.096       .  S
Cu58         N60   2.073       .  S
Cu58         N66   2.075       .  S
N59          N60   1.318       .  A
N59          C63   1.339       .  A
N60          C61   1.349       .  A
C61          C62   1.388       .  A
C61          H64   1.082       .  S
C62          C63   1.379       .  A
C63          H65   1.081       .  S
N66          N67   1.326       .  A
N66          C70   1.342       .  A
N67          C68   1.349       .  A
C68          C69   1.386       .  A
C68          H71   1.083       .  S
C69          C70   1.379       .  A
C69         C173   1.481       .  S
C70          H72   1.080       .  S
N73          N74   1.321       .  A
N73          C77   1.350       .  A
N73         Cu81   2.095       .  S
N74          C75   1.339       .  A
N74         Cu80   2.047       .  S
C75          C76   1.376       .  A
C75          H78   1.080       .  S
C76          C77   1.390       .  A
C76         C176   1.481       .  S
C77          H79   1.082       .  S
Cu80         N83   2.048       .  S
Cu81         N91   2.097       .  S
Cu82         N84   2.071       .  S
Cu82         N90   2.073       .  S
N83          N84   1.318       .  A
N83          C87   1.339       .  A
N84          C85   1.348       .  A
C85          C86   1.387       .  A
C85          H88   1.082       .  S
C86          C87   1.380       .  A
C86         C262   1.466       .  S
C87          H89   1.081       .  S
N90          N91   1.326       .  A
N90          C94   1.341       .  A
N91          C92   1.349       .  A
C92          C93   1.386       .  A
C92          H95   1.083       .  S
C93          C94   1.378       .  A
C93         C173   1.481       .  S
C94          H96   1.080       .  S
N97          N98   1.321   1_556  A
N97         C101   1.350       .  A
N97        Cu105   2.088       .  S
N98          C99   1.340       .  A
N98        Cu104   2.055       .  S
C99         C100   1.378   1_554  A
C99         H102   1.080       .  S
C100        C101   1.388       .  A
C100        C174   1.480       .  S
C101        H103   1.082       .  S
Cu104       N107   2.055       .  S
Cu105       N115   2.090       .  S
Cu106       N108   2.079       .  S
Cu106       N114   2.081       .  S
N107        N108   1.319       .  A
N107        C111   1.340       .  A
N108        C109   1.350       .  A
C109        C110   1.388       .  A
C109        H112   1.081       .  S
C110        C111   1.380       .  A
C111        H113   1.081       .  S
N114        N115   1.325   1_554  A
N114        C118   1.343       .  A
N115        C116   1.348       .  A
C116        C117   1.385       .  A
C116        H119   1.082       .  S
C117        C118   1.381   1_556  A
C117        C175   1.483       .  S
C118        H120   1.080       .  S
N121        N122   1.321   1_556  A
N121        C125   1.349       .  A
N121       Cu129   2.087       .  S
N122        C123   1.340       .  A
N122       Cu128   2.053       .  S
C123        C124   1.378   1_554  A
C123        H126   1.081       .  S
C124        C125   1.388       .  A
C124        C174   1.479       .  S
C125        H127   1.082       .  S
Cu128       N131   2.053       .  S
Cu129       N139   2.089       .  S
Cu130       N132   2.079       .  S
Cu130       N138   2.081       .  S
N131        N132   1.319       .  A
N131        C135   1.339       .  A
N132        C133   1.350       .  A
C133        C134   1.388       .  A
C133        H136   1.081       .  S
C134        C135   1.379       .  A
C134        C276   1.469       .  S
C135        H137   1.081       .  S
N138        N139   1.325   1_554  A
N138        C142   1.343       .  A
N139        C140   1.348       .  A
C140        C141   1.385       .  A
C140        H143   1.082       .  S
C141        C142   1.382   1_556  A
C141        C172   1.483       .  S
C142        H144   1.080       .  S
C145        C204   1.480   1_455  S
C145        C228   1.480   1_545  S
C145        C146   1.355   1_445  D
C146        C167   1.481   1_655  S
C146        C197   1.481   1_565  S
N147        N148   1.321   1_556  A
N147        C151   1.350       .  A
N147       Cu155   2.093       .  S
N148        C149   1.339       .  A
N148       Cu154   2.047       .  S
C149        C150   1.376   1_554  A
C149        H152   1.080       .  S
C150        C151   1.390       .  A
C150        C172   1.480   1_455  S
C151        H153   1.082   1_455  S
Cu154       N157   2.048       .  S
Cu155       N165   2.095   1_556  S
Cu156       N158   2.072       .  S
Cu156       N164   2.074       .  S
N157        N158   1.318       .  A
N157        C161   1.339       .  A
N158        C159   1.349       .  A
C159        C160   1.387       .  A
C159        H162   1.082       .  S
C160        C161   1.379       .  A
C161        H163   1.081       .  S
N164        N165   1.326       .  A
N164        C168   1.342       .  A
N165        C166   1.348   1_554  A
C166        C167   1.386       .  A
C166        H169   1.083       .  S
C167        C168   1.379   1_556  A
C168        H170   1.080       .  S
C171        C221   1.483   1_455  S
C171        C172   1.356   1_455  D
C173        C174   1.355       .  D
C175        C180   1.480   1_565  S
C175        C176   1.356   1_565  D
C176        C245   1.483   1_545  S
N177        N178   1.321   1_556  A
N177        C181   1.350       .  A
N177       Cu185   2.094       .  S
N178        C179   1.339       .  A
N178       Cu184   2.048       .  S
C179        C180   1.376   1_554  A
C179        H182   1.080       .  S
C180        C181   1.390       .  A
C181        H183   1.082   1_545  S
Cu184       N187   2.049       .  S
Cu185       N195   2.096   1_556  S
Cu186       N188   2.072       .  S
Cu186       N194   2.073       .  S
N187        N188   1.318       .  A
N187        C191   1.339       .  A
N188        C189   1.349       .  A
C189        C190   1.387       .  A
C189        H192   1.082       .  S
C190        C191   1.380       .  A
C190        C286   1.467       .  S
C191        H193   1.081       .  S
N194        N195   1.325       .  A
N194        C198   1.342       .  A
N195        C196   1.349   1_554  A
C196        C197   1.386       .  A
C196        H199   1.083   1_545  S
C197        C198   1.379   1_556  A
C198        H200   1.080       .  S
N201        N202   1.321       .  A
N201        C205   1.349       .  A
N201       Cu209   2.087       .  S
N202        C203   1.339       .  A
N202       Cu208   2.052       .  S
C203        C204   1.378       .  A
C203        H206   1.080       .  S
C204        C205   1.388       .  A
C205        H207   1.082   1_655  S
Cu208       N211   2.052       .  S
Cu209       N219   2.089       .  S
Cu210       N212   2.080       .  S
Cu210       N218   2.082       .  S
N211        N212   1.319       .  A
N211        C215   1.339       .  A
N212        C213   1.350       .  A
C213        C214   1.388       .  A
C213        H216   1.081       .  S
C214        C215   1.379       .  A
C214        C252   1.468       .  S
C215        H217   1.081       .  S
N218        N219   1.325       .  A
N218        C222   1.343       .  A
N219        C220   1.348       .  A
C220        C221   1.385       .  A
C220        H223   1.082   1_655  S
C221        C222   1.382       .  A
C222        H224   1.080       .  S
N225        N226   1.321       .  A
N225        C229   1.349       .  A
N225       Cu233   2.087       .  S
N226        C227   1.340       .  A
N226       Cu232   2.054       .  S
C227        C228   1.378       .  A
C227        H230   1.080       .  S
C228        C229   1.388       .  A
C229        H231   1.082   1_565  S
Cu232       N235   2.054       .  S
Cu233       N243   2.089       .  S
Cu234       N236   2.079       .  S
Cu234       N242   2.081       .  S
N235        N236   1.319       .  A
N235        C239   1.340       .  A
N236        C237   1.350       .  A
C237        C238   1.388       .  A
C237        H240   1.081       .  S
C238        C239   1.380       .  A
C239        H241   1.081       .  S
N242        N243   1.325       .  A
N242        C246   1.343       .  A
N243        C244   1.348       .  A
C244        C245   1.385       .  A
C244        H247   1.082   1_565  S
C245        C246   1.382       .  A
C246        H248   1.080       .  S
N249        N250   1.321       .  A
N249        C253   1.349       .  A
N249       Cu257   2.073       .  S
N250        C251   1.340       .  A
N250       Cu256   2.060       .  S
C251        C252   1.380       .  A
C251        H254   1.082       .  S
C252        C253   1.386       .  A
C253        H255   1.082       .  S
Cu256       N259   2.059       .  S
Cu257       N267   2.076       .  S
Cu258       N260   2.075       .  S
Cu258       N266   2.077       .  S
N259        N260   1.321       .  A
N259        C263   1.339       .  A
N260        C261   1.349       .  A
C261        C262   1.385       .  A
C261        H264   1.081       .  S
C262        C263   1.379       .  A
C263        H265   1.082       .  S
N266        N267   1.323       .  A
N266        C270   1.346       .  A
N267        C268   1.345       .  A
C268        C269   1.384       .  A
C268        H271   1.081       .  S
C269        C270   1.385       .  A
C269        C300   1.483       .  S
C270        H272   1.082       .  S
N273        N274   1.321       .  A
N273        C277   1.349       .  A
N273       Cu281   2.073       .  S
N274        C275   1.340       .  A
N274       Cu280   2.060       .  S
C275        C276   1.380       .  A
C275        H278   1.082       .  S
C276        C277   1.386       .  A
C277        H279   1.081       .  S
Cu280       N283   2.059       .  S
Cu281       N291   2.076       .  S
Cu282       N284   2.075       .  S
Cu282       N290   2.077       .  S
N283        N284   1.321       .  A
N283        C287   1.339       .  A
N284        C285   1.349       .  A
C285        C286   1.386       .  A
C285        H288   1.081       .  S
C286        C287   1.379       .  A
C287        H289   1.082       .  S
N290        N291   1.323       .  A
N290        C294   1.346       .  A
N291        C292   1.345       .  A
C292        C293   1.385       .  A
C292        H295   1.081       .  S
C293        C294   1.385       .  A
C293        C297   1.484       .  S
C294        H296   1.082       .  S
C297        C298   1.403       .  A
C297        C302   1.414       .  A
C298        C299   1.402       .  A
C298        H303   1.084       .  S
C299        C300   1.414       .  A
C299        C306   1.444       .  S
C300        C301   1.403       .  A
C301        C302   1.402       .  A
C301        H304   1.084       .  S
C302        C305   1.444       .  S
C305        N307   1.157       .  T
C306        N308   1.157       .  T
C309        C310   1.404       .  A
C309        C314   1.415       .  A
C310        C311   1.401       .  A
C310        H315   1.084       .  S
C311        C312   1.412       .  A
C311        C318   1.443       .  S
C312        C313   1.405       .  A
C313        C314   1.403       .  A
C313        H316   1.085       .  S
C314        C317   1.444       .  S
C317        N319   1.157       .  T
C318        N320   1.157       .  T
