geometry optimzed in LAMMPS
_audit_creation_date              2020-11-30 
_audit_creation_method            'lammps2cif' 
_symmetry_space_group_name_H-M    'P1' 
_symmetry_Int_Tables_number       1 
_symmetry_cell_setting            triclinic 
loop_ 
_symmetry_equiv_pos_as_xyz 
  x,y,z 
_cell_length_a                    23.061268670619263 
_cell_length_b                    41.5026249615754 
_cell_length_c                    18.537029471475 
_cell_angle_alpha                 90.01439105759417 
_cell_angle_beta                  89.9992893320183 
_cell_angle_gamma                 90.00056155959045 
loop_ 
_atom_site_label 
_atom_site_type_symbol 
_atom_site_fract_x 
_atom_site_fract_y 
_atom_site_fract_z 
_atom_site_charge 
N1          N  0.24853580  0.38177625  0.25645439    -0.24910
N2          N  0.19557522  0.37328703  0.27569905    -0.32770
C3          C  0.16177713  0.39967235  0.27737342     0.03430
C4          C  0.19559651  0.42583873  0.25874287     0.09450
C5          C  0.25028986  0.41380426  0.24573879    -0.03650
H6          H  0.11606381  0.39973166  0.29059365     0.10120
H7          H  0.28837498  0.42717541  0.22943491     0.11320
Cu8        Cu  0.17310486  0.32572951  0.29439072     0.44170
Cu9        Cu  0.31423693  0.34858913  0.24540832     0.41990
Cu10       Cu  0.27493268  0.26314457  0.23767792     0.43880
N11         N  0.15256666  0.27743274  0.28438697    -0.32300
N12         N  0.18639920  0.25535705  0.25491144    -0.26550
C13         C  0.15399731  0.22908630  0.23998904    -0.02650
C14         C  0.09705026  0.23496813  0.26148585     0.09560
C15         C  0.09898630  0.26547535  0.29191239     0.03360
H16         H  0.17026536  0.20760244  0.21383392     0.11010
H17         H  0.06294018  0.27910478  0.31341239     0.10090
N18         N  0.36022581  0.28033948  0.23872401    -0.33750
N19         N  0.37331738  0.31137815  0.24171930    -0.25930
C20         C  0.43109636  0.31484391  0.24480447    -0.01170
C21         C  0.45575470  0.28468248  0.24375024     0.07440
C22         C  0.40996798  0.26320414  0.23994030     0.05530
H23         H  0.45341427  0.33772572  0.24860160     0.10640
H24         H  0.41248001  0.23717351  0.23922294     0.09470
N25         N  0.24854052  0.73795331  0.24360641    -0.24910
N26         N  0.19556702  0.74643253  0.22439894    -0.32770
C27         C  0.16177076  0.72004543  0.22280664     0.03430
C28         C  0.19560433  0.69388789  0.24145370     0.09450
C29         C  0.25030491  0.70592937  0.25438012    -0.03650
H30         H  0.11605036  0.71997892  0.20962581     0.10120
H31         H  0.28840258  0.69256561  0.27066599     0.11320
Cu32       Cu  0.17308253  0.79397990  0.20563324     0.44170
Cu33       Cu  0.31424209  0.77114981  0.25451786     0.41990
Cu34       Cu  0.27494429  0.85660529  0.26202341     0.43880
N35         N  0.15254153  0.84227918  0.21551628    -0.32300
N36         N  0.18640100  0.86438317  0.24483729    -0.26550
C37         C  0.15401115  0.89066746  0.25967997    -0.02650
C38         C  0.09704153  0.88476182  0.23830699     0.09560
C39         C  0.09894999  0.85422440  0.20803080     0.03360
H40         H  0.17029999  0.91217510  0.28571710     0.11010
H41         H  0.06288829  0.84057254  0.18664381     0.10090
N42         N  0.36023482  0.83940453  0.26101162    -0.33750
N43         N  0.37332257  0.80836385  0.25809544    -0.25930
C44         C  0.43110116  0.80489488  0.25501793    -0.01170
C45         C  0.45576362  0.83505595  0.25599531     0.07440
C46         C  0.40997962  0.85653757  0.25975178     0.05530
H47         H  0.45341618  0.78201043  0.25128165     0.10640
H48         H  0.41249537  0.88256844  0.26040587     0.09470
N49         N  0.83747708  0.73801052  0.25631069    -0.24910
N50         N  0.89044018  0.74648870  0.27557269    -0.32770
C51         C  0.92420497  0.72009081  0.27728801     0.03430
C52         C  0.89035661  0.69392971  0.25866666     0.09450
C53         C  0.83568431  0.70597961  0.24562491    -0.03650
H54         H  0.96991365  0.72001885  0.29053112     0.10120
H55         H  0.79758676  0.69261691  0.22931721     0.11320
Cu56       Cu  0.91293288  0.79405034  0.29423666     0.44170
Cu57       Cu  0.77182617  0.77121391  0.24521371     0.41990
Cu58       Cu  0.81111762  0.85665108  0.23749407     0.43880
N59         N  0.93347981  0.84234427  0.28421799    -0.32300
N60         N  0.89966612  0.86441748  0.25472238    -0.26550
C61         C  0.93209224  0.89067513  0.23978682    -0.02650
C62         C  0.98903168  0.88478789  0.26130159     0.09560
C63         C  0.98706652  0.85429310  0.29175069     0.03360
H64         H  0.91584439  0.91215452  0.21361871     0.11010
H65         H  0.02309960  0.84066348  0.31326773     0.10090
N66         N  0.72581777  0.83945461  0.23852200    -0.33750
N67         N  0.71274317  0.80841449  0.24150758    -0.25930
C68         C  0.65496833  0.80493563  0.24457798    -0.01170
C69         C  0.63028815  0.83508959  0.24352388     0.07440
C70         C  0.67606109  0.85657915  0.23972991     0.05530
H71         H  0.63266778  0.78204914  0.24836728     0.10640
H72         H  0.67352922  0.88260905  0.23901792     0.09470
O73         O  0.10360371  0.52545400  0.31023144    -0.70570
O74         O  0.98223312  0.59430252  0.31022370    -0.71550
O75         O  0.98234746  0.52521357  0.31009057    -0.60170
O76         O  0.10348902  0.59454252  0.31005659    -0.68580
O77         O  0.10360470  0.59427624  0.19007622    -0.68130
O78         O  0.98221790  0.52543824  0.19010977    -0.59380
O79         O  0.98235046  0.59452585  0.19024293    -0.71890
O80         O  0.10347277  0.52518902  0.19025119    -0.70670
Cu81       Cu  0.04291768  0.55987885  0.31437701     1.04570
Cu82       Cu  0.04291031  0.55985657  0.18594426     1.04330
C83         C  0.12072555  0.51366545  0.25035617     0.95630
C84         C  0.96511051  0.60607257  0.25034459     0.94770
C85         C  0.96509776  0.51366913  0.24999125     0.86910
C86         C  0.12073682  0.60606424  0.24994677     0.93190
N87         N  0.83746334  0.38173325  0.24378901    -0.24910
N88         N  0.89044015  0.37326597  0.22456236    -0.32770
C89         C  0.92420342  0.39966558  0.22293559     0.03430
C90         C  0.89034057  0.42581703  0.24157980     0.09450
C91         C  0.83566010  0.41375968  0.25454048    -0.03650
H92         H  0.96991946  0.39974530  0.20973055     0.10120
H93         H  0.79754915  0.42711443  0.27083164     0.11320
Cu94       Cu  0.91294822  0.32571574  0.20581091     0.44170
Cu95       Cu  0.77181202  0.34851926  0.25474094     0.41990
Cu96       Cu  0.81110402  0.26307067  0.26222040     0.43880
N97         N  0.93350182  0.27741957  0.21569840    -0.32300
N98         N  0.89966238  0.25531628  0.24503688    -0.26550
C99         C  0.93207789  0.22904533  0.25988757    -0.02650
C100        C  0.98903994  0.23495859  0.23849672     0.09560
C101        C  0.98710069  0.26548443  0.20820208     0.03360
H102        H  0.91581017  0.20754082  0.28593427     0.11010
H103        H  0.02314829  0.27913790  0.18679757     0.10090
N104        N  0.72580661  0.28027123  0.26122571    -0.33750
N105        N  0.71273305  0.31131313  0.25832446    -0.25930
C106        C  0.65495855  0.31479341  0.25525881    -0.01170
C107        C  0.63027753  0.28463893  0.25622876     0.07440
C108        C  0.67604936  0.26314740  0.25996783     0.05530
H109        H  0.63265873  0.33768195  0.25153341     0.10640
H110        H  0.67351645  0.23711715  0.26061113     0.09470
C111        C  0.04304999  0.21433026  0.24998694    -0.00110
C112        C  0.04305359  0.90540810  0.24981988    -0.00110
C113        C  0.04722556  0.15981396  0.06522511     0.05510
C114        C  0.04308109  0.17662713  0.99997389    -0.10640
C115        C  0.03896725  0.15981799  0.43469602     0.03010
C116        C  0.03907353  0.12604586  0.43461997    -0.09170
C117        C  0.04314534  0.10912186  0.99991959     0.05500
C118        C  0.04718528  0.12604199  0.06524700    -0.08590
H119        H  0.04305468  0.20276673  0.99999525     0.11090
H120        H  0.03617798  0.11301122  0.38403543     0.08620
H121        H  0.05009996  0.11300437  0.11581132     0.08470
C122        C  0.04724763  0.95991804  0.43459205     0.05510
C123        C  0.04310625  0.94311146  0.49985214    -0.10640
C124        C  0.03898788  0.95992712  0.06512178     0.03010
C125        C  0.03908709  0.99369910  0.06518035    -0.09170
C126        C  0.04315647  0.01061672  0.49987165     0.05500
C127        C  0.04720013  0.99369018  0.43455265    -0.08590
H128        H  0.04308420  0.91697185  0.49984434     0.11090
H129        H  0.03618821  0.00673866  0.11575830     0.08620
H130        H  0.05011168  0.00672288  0.38398158     0.08470
C131        C  0.04316865  0.04533297  0.49988153    -0.10900
C132        C  0.04316507  0.07440562  0.99989436    -0.12460
C133        C  0.04999175  0.94225108  0.36785979    -0.10900
C134        C  0.04923392  0.92612322  0.31372274    -0.12460
C135        C  0.03620004  0.94226861  0.13184275    -0.10900
C136        C  0.03691610  0.92614012  0.18596167    -0.12460
C137        C  0.03689869  0.19361155  0.31386493    -0.10900
C138        C  0.03617855  0.17748314  0.36798395    -0.12460
C139        C  0.04921505  0.19360192  0.18610329    -0.10900
C140        C  0.04996853  0.17747416  0.13196611    -0.12460
C141        C  0.93009455  0.48520070  0.24942570    -0.10900
C142        C  0.90889546  0.45871889  0.24677934    -0.12460
C143        C  0.90891963  0.66102721  0.25352916    -0.10900
C144        C  0.93011573  0.63454414  0.25091099    -0.12460
C145        C  0.51690828  0.84158736  0.25169373    -0.10900
C146        C  0.56913646  0.84160234  0.24780434    -0.12460
C147        C  0.17700230  0.66099575  0.24668688    -0.10900
C148        C  0.15576391  0.63452427  0.24935643    -0.12460
C149        C  0.51689800  0.27814685  0.24803821    -0.10900
C150        C  0.56912589  0.27812866  0.25192961    -0.12460
C151        C  0.17698596  0.45873137  0.25356975    -0.10900
C152        C  0.15574746  0.48520343  0.25093319    -0.12460
N153        N  0.24853565  0.38177708  0.75645847    -0.24910
N154        N  0.19557516  0.37328772  0.77570315    -0.32770
C155        C  0.16177725  0.39967309  0.77737965     0.03430
C156        C  0.19559670  0.42583963  0.75875056     0.09450
C157        C  0.25028986  0.41380523  0.74574498    -0.03650
H158        H  0.11606401  0.39973231  0.79060028     0.10120
H159        H  0.28837493  0.42717651  0.72944146     0.11320
Cu160      Cu  0.17310466  0.32573004  0.79439229     0.44170
Cu161      Cu  0.31423659  0.34859001  0.74540991     0.41990
Cu162      Cu  0.27493275  0.26314539  0.73767872     0.43880
N163        N  0.15256649  0.27743333  0.78438747    -0.32300
N164        N  0.18639920  0.25535769  0.75491202    -0.26550
C165        C  0.15399742  0.22908690  0.73998948    -0.02650
C166        C  0.09705029  0.23496866  0.76148615     0.09560
C167        C  0.09898615  0.26547589  0.79191262     0.03360
H168        H  0.17026560  0.20760308  0.71383438     0.11010
H169        H  0.06293991  0.27910528  0.81341247     0.10090
N170        N  0.36022586  0.28034047  0.73872456    -0.33750
N171        N  0.37331724  0.31137916  0.74171998    -0.25930
C172        C  0.43109620  0.31484504  0.74480502    -0.01170
C173        C  0.45575478  0.28468367  0.74375057     0.07440
C174        C  0.40996819  0.26320524  0.73994064     0.05530
H175        H  0.45341395  0.33772689  0.74860234     0.10640
H176        H  0.41248040  0.23717461  0.73922321     0.09470
N177        N  0.24854251  0.73795364  0.74361801    -0.24910
N178        N  0.19556886  0.74643263  0.72441070    -0.32770
C179        C  0.16177265  0.72004552  0.72281991     0.03430
C180        C  0.19560633  0.69388818  0.74146780     0.09450
C181        C  0.25030704  0.70592978  0.75439308    -0.03650
H182        H  0.11605229  0.71997884  0.70963881     0.10120
H183        H  0.28840498  0.69256613  0.77067841     0.11320
Cu184      Cu  0.17308419  0.79397961  0.70564144     0.44170
Cu185      Cu  0.31424404  0.77115044  0.75452578     0.41990
Cu186      Cu  0.27494502  0.85660625  0.76202467     0.43880
N187        N  0.15254240  0.84227889  0.71552017    -0.32300
N188        N  0.18640171  0.86438358  0.74483870    -0.26550
C189        C  0.15401156  0.89066799  0.75967927    -0.02650
C190        C  0.09704183  0.88476160  0.73830777     0.09560
C191        C  0.09895061  0.85422366  0.70803426     0.03360
H192        H  0.17030023  0.91217619  0.78571424     0.11010
H193        H  0.06288916  0.84057122  0.68664849     0.10090
N194        N  0.36023552  0.83940567  0.76101290    -0.33750
N195        N  0.37332373  0.80836498  0.75809907    -0.25930
C196        C  0.43110233  0.80489628  0.75502086    -0.01170
C197        C  0.45576426  0.83505750  0.75599536     0.07440
C198        C  0.40998000  0.85653894  0.75975080     0.05530
H199        H  0.45341772  0.78201188  0.75128614     0.10640
H200        H  0.41249531  0.88256983  0.76040270     0.09470
N201        N  0.83747606  0.73801106  0.75629978    -0.24910
N202        N  0.89043893  0.74648909  0.77556312    -0.32770
C203        C  0.92420377  0.72009123  0.77727773     0.03430
C204        C  0.89035573  0.69393029  0.75865452     0.09450
C205        C  0.83568349  0.70598024  0.74561246    -0.03650
H206        H  0.96991220  0.72001916  0.79052218     0.10120
H207        H  0.79758605  0.69261762  0.72930407     0.11320
Cu208      Cu  0.91293134  0.79405047  0.79423104     0.44170
Cu209      Cu  0.77182510  0.77121455  0.74520448     0.41990
Cu210      Cu  0.81111766  0.85665175  0.73748911     0.43880
N211        N  0.93347881  0.84234443  0.78421524    -0.32300
N212        N  0.89966588  0.86441780  0.75471896    -0.26550
C213        C  0.93209251  0.89067533  0.73978425    -0.02650
C214        C  0.98903153  0.88478785  0.76130031     0.09560
C215        C  0.98706548  0.85429309  0.79174954     0.03360
H216        H  0.91584530  0.91215480  0.71361586     0.11010
H217        H  0.02309800  0.84066334  0.81326759     0.10090
N218        N  0.72581779  0.83945560  0.73851702    -0.33750
N219        N  0.71274271  0.80841551  0.74150109    -0.25930
C220        C  0.65496785  0.80493693  0.74457214    -0.01170
C221        C  0.63028824  0.83509105  0.74352002     0.07440
C222        C  0.67606146  0.85658040  0.73972659     0.05530
H223        H  0.63266692  0.78205054  0.74836057     0.10640
H224        H  0.67353005  0.88261032  0.73901615     0.09470
O225        O  0.10360042  0.52545471  0.81023694    -0.70570
O226        O  0.98223000  0.59430342  0.81021861    -0.71550
O227        O  0.98234419  0.52521452  0.81008527    -0.60170
O228        O  0.10348608  0.59454316  0.81006278    -0.68580
O229        O  0.10360856  0.59427721  0.69008242    -0.68130
O230        O  0.98222167  0.52543915  0.69010445    -0.59380
O231        O  0.98235414  0.59452674  0.69023785    -0.71890
O232        O  0.10347651  0.52519008  0.69025668    -0.70670
Cu233      Cu  0.04291427  0.55987966  0.81437734     1.04570
Cu234      Cu  0.04291431  0.55985755  0.68594458     1.04330
C235        C  0.12072579  0.51366635  0.75036303     0.95630
C236        C  0.96511063  0.60607340  0.75033798     0.94770
C237        C  0.96509801  0.51367007  0.74998443     0.86910
C238        C  0.12073754  0.60606493  0.74995465     0.93190
N239        N  0.83746392  0.38173409  0.74378465    -0.24910
N240        N  0.89044055  0.37326662  0.72455760    -0.32770
C241        C  0.92420367  0.39966626  0.72292850     0.03430
C242        C  0.89034090  0.42581791  0.74157152     0.09450
C243        C  0.83566066  0.41376065  0.75453407    -0.03650
H244        H  0.96991959  0.39974587  0.70972282     0.10120
H245        H  0.79754988  0.42711555  0.77082520     0.11320
Cu246      Cu  0.91294859  0.32571620  0.70580861     0.44170
Cu247      Cu  0.77181271  0.34852021  0.75473957     0.41990
Cu248      Cu  0.81110426  0.26307163  0.76222065     0.43880
N249        N  0.93350206  0.27742006  0.71569767    -0.32300
N250        N  0.89966260  0.25531699  0.74503698    -0.26550
C251        C  0.93207804  0.22904607  0.75988823    -0.02650
C252        C  0.98904003  0.23495909  0.73849677     0.09560
C253        C  0.98710083  0.26548478  0.70820133     0.03360
H254        H  0.91581029  0.20754173  0.78593561     0.11010
H255        H  0.02314847  0.27913806  0.68679631     0.10090
N256        N  0.72580686  0.28027232  0.76122609    -0.33750
N257        N  0.71273348  0.31131423  0.75832442    -0.25930
C258        C  0.65495899  0.31479462  0.75525885    -0.01170
C259        C  0.63027776  0.28464020  0.75622928     0.07440
C260        C  0.67604949  0.26314859  0.75996856     0.05530
H261        H  0.63265932  0.33768319  0.75153301     0.10640
H262        H  0.67351642  0.23711835  0.76061215     0.09470
C263        C  0.04305007  0.21433075  0.74998706    -0.00110
C264        C  0.04305380  0.90540789  0.74981974    -0.00110
C265        C  0.04722579  0.15981421  0.56522554     0.05510
C266        C  0.04308124  0.17662722  0.49997412    -0.10640
C267        C  0.03896715  0.15981805  0.93469557     0.03010
C268        C  0.03907337  0.12604592  0.93461913    -0.09170
C269        C  0.04314558  0.10912196  0.49992060     0.05500
C270        C  0.04718556  0.12604224  0.56524783    -0.08590
H271        H  0.04305480  0.20276683  0.49999516     0.11090
H272        H  0.03617785  0.11301139  0.88403444     0.08620
H273        H  0.05010030  0.11300473  0.61581228     0.08470
C274        C  0.04724695  0.95991780  0.93459200     0.05510
C275        C  0.04310528  0.94311135  0.99985221    -0.10640
C276        C  0.03898895  0.95992711  0.56512189     0.03010
C277        C  0.03908796  0.99369909  0.56518078    -0.09170
C278        C  0.04315588  0.01061661  0.99987106     0.05500
C279        C  0.04719964  0.99368994  0.93455226    -0.08590
H280        H  0.04308312  0.91697174  0.99984464     0.11090
H281        H  0.03618913  0.00673855  0.61575886     0.08620
H282        H  0.05011142  0.00672253  0.88398107     0.08470
C283        C  0.04316823  0.04533286  0.99988053    -0.10900
C284        C  0.04316539  0.07440572  0.49989562    -0.12460
C285        C  0.04999118  0.94225073  0.86785993    -0.10900
C286        C  0.04923356  0.92612287  0.81372288    -0.12460
C287        C  0.03620129  0.94226852  0.63184273    -0.10900
C288        C  0.03691716  0.92614002  0.68596163    -0.12460
C289        C  0.03689870  0.19361195  0.81386491    -0.10900
C290        C  0.03617852  0.17748339  0.86798372    -0.12460
C291        C  0.04921527  0.19360245  0.68610335    -0.10900
C292        C  0.04996878  0.17747459  0.63196632    -0.12460
C293        C  0.93009483  0.48520163  0.74941603    -0.10900
C294        C  0.90889581  0.45871982  0.74676948    -0.12460
C295        C  0.90891878  0.66102777  0.75351765    -0.10900
C296        C  0.93011536  0.63454479  0.75090121    -0.12460
C297        C  0.51690869  0.84158915  0.75169228    -0.10900
C298        C  0.56913678  0.84160409  0.74780180    -0.12460
C299        C  0.17700448  0.66099600  0.74670028    -0.10900
C300        C  0.15576544  0.63452465  0.74936786    -0.12460
C301        C  0.51689816  0.27814817  0.74803861    -0.10900
C302        C  0.56912606  0.27813002  0.75193010    -0.12460
C303        C  0.17698623  0.45873232  0.75357910    -0.10900
C304        C  0.15574774  0.48520438  0.75094256    -0.12460
loop_ 
_geom_bond_atom_site_label_1 
_geom_bond_atom_site_label_2 
_geom_bond_distance 
_geom_bond_site_symmetry_2 
_ccdc_geom_bond_type 
N1            N2   1.320       .  A
N1            C5   1.345       .  A
N1           Cu9   2.058       .  S
N2            C3   1.344       .  A
N2           Cu8   2.070       .  S
C3            C4   1.381       .  A
C3            H6   1.082       .  S
C4            C5   1.378       .  A
C4          C151   1.434       .  S
C5            H7   1.082       .  S
Cu8          N11   2.068       .  S
Cu9          N19   2.061       .  S
Cu10         N12   2.092       .  S
Cu10         N18   2.093       .  S
N11          N12   1.322       .  A
N11          C15   1.339       .  A
N12          C13   1.350       .  A
C13          C14   1.394       .  A
C13          H16   1.082       .  S
C14          C15   1.387       .  A
C14         C111   1.526       .  S
C15          H17   1.082       .  S
N18          N19   1.324       .  A
N18          C22   1.350       .  A
N19          C20   1.341       .  A
C20          C21   1.375       .  A
C20          H23   1.082       .  S
C21          C22   1.384       .  A
C21         C149   1.438       .  S
C22          H24   1.082       .  S
N25          N26   1.320       .  A
N25          C29   1.345       .  A
N25         Cu33   2.058       .  S
N26          C27   1.344       .  A
N26         Cu32   2.070       .  S
C27          C28   1.381       .  A
C27          H30   1.082       .  S
C28          C29   1.378       .  A
C28         C147   1.434       .  S
C29          H31   1.082       .  S
Cu32         N35   2.068       .  S
Cu33         N43   2.061       .  S
Cu34         N36   2.092       .  S
Cu34         N42   2.093       .  S
N35          N36   1.322       .  A
N35          C39   1.339       .  A
N36          C37   1.350       .  A
C37          C38   1.394       .  A
C37          H40   1.082       .  S
C38          C39   1.387       .  A
C38         C112   1.526       .  S
C39          H41   1.082       .  S
N42          N43   1.324       .  A
N42          C46   1.350       .  A
N43          C44   1.341       .  A
C44          C45   1.375       .  A
C44          H47   1.082       .  S
C45          C46   1.384       .  A
C45         C145   1.438       .  S
C46          H48   1.082       .  S
N49          N50   1.320       .  A
N49          C53   1.345       .  A
N49         Cu57   2.058       .  S
N50          C51   1.344       .  A
N50         Cu56   2.070       .  S
C51          C52   1.381       .  A
C51          H54   1.082       .  S
C52          C53   1.378       .  A
C52         C143   1.434       .  S
C53          H55   1.082       .  S
Cu56         N59   2.068       .  S
Cu57         N67   2.060       .  S
Cu58         N60   2.092       .  S
Cu58         N66   2.093       .  S
N59          N60   1.322       .  A
N59          C63   1.339       .  A
N60          C61   1.350       .  A
C61          C62   1.394       .  A
C61          H64   1.082       .  S
C62          C63   1.387       .  A
C62         C112   1.526   1_655  S
C63          H65   1.082   1_655  S
N66          N67   1.324       .  A
N66          C70   1.350       .  A
N67          C68   1.341       .  A
C68          C69   1.375       .  A
C68          H71   1.082       .  S
C69          C70   1.384       .  A
C69         C146   1.438       .  S
C70          H72   1.082       .  S
O73         Cu81   2.001       .  S
O73          C83   1.275       .  A
O74         Cu81   2.001   1_655  S
O74          C84   1.275       .  A
O75         Cu81   2.007   1_655  S
O75          C85   1.276       .  A
O76         Cu81   2.007       .  S
O76          C86   1.276       .  A
O77         Cu82   2.001       .  S
O77          C86   1.275       .  A
O78         Cu82   2.001   1_655  S
O78          C85   1.275       .  A
O79         Cu82   2.007   1_655  S
O79          C84   1.276       .  A
O80         Cu82   2.007       .  S
O80          C83   1.276       .  A
Cu81        Cu82   2.381       .  S
C83         C152   1.431       .  S
C84         C144   1.431       .  S
C85         C141   1.431       .  S
C86         C148   1.431       .  S
N87          N88   1.320       .  A
N87          C91   1.345       .  A
N87         Cu95   2.058       .  S
N88          C89   1.344       .  A
N88         Cu94   2.070       .  S
C89          C90   1.381       .  A
C89          H92   1.082       .  S
C90          C91   1.378       .  A
C90         C142   1.434       .  S
C91          H93   1.082       .  S
Cu94         N97   2.068       .  S
Cu95        N105   2.060       .  S
Cu96         N98   2.092       .  S
Cu96        N104   2.093       .  S
N97          N98   1.322       .  A
N97         C101   1.339       .  A
N98          C99   1.350       .  A
C99         C100   1.394       .  A
C99         H102   1.082       .  S
C100        C101   1.387       .  A
C100        C111   1.526   1_655  S
C101        H103   1.082   1_655  S
N104        N105   1.324       .  A
N104        C108   1.350       .  A
N105        C106   1.341       .  A
C106        C107   1.375       .  A
C106        H109   1.082       .  S
C107        C108   1.384       .  A
C107        C150   1.438       .  S
C108        H110   1.082       .  S
C111        C137   1.470       .  S
C111        C139   1.470       .  S
C112        C134   1.470       .  S
C112        C136   1.470       .  S
C113        C114   1.400   1_554  A
C113        C118   1.402       .  A
C113        C140   1.439       .  S
C114        C267   1.400       .  A
C114        H119   1.085       .  S
C115        C116   1.402       .  A
C115        C266   1.400       .  A
C115        C138   1.439       .  S
C116        C269   1.403       .  A
C116        H120   1.084       .  S
C117        C118   1.403   1_556  A
C117        C268   1.403       .  A
C117        C132   1.441       .  S
C118        H121   1.084       .  S
C122        C123   1.400       .  A
C122        C127   1.402       .  A
C122        C133   1.439       .  S
C123        C276   1.400       .  A
C123        H128   1.085       .  S
C124        C125   1.402       .  A
C124        C275   1.400   1_554  A
C124        C135   1.439       .  S
C125        C278   1.403   1_564  A
C125        H129   1.084   1_565  S
C126        C127   1.403   1_545  A
C126        C277   1.403   1_545  A
C126        C131   1.441       .  S
C127        H130   1.084   1_565  S
C131        C284   1.207       .  T
C132        C283   1.207       .  T
C133        C134   1.206       .  T
C135        C136   1.206       .  T
C137        C138   1.206       .  T
C139        C140   1.206       .  T
C141        C142   1.204       .  T
C143        C144   1.204       .  T
C145        C146   1.207       .  T
C147        C148   1.204       .  T
C149        C150   1.207       .  T
C151        C152   1.204       .  T
N153        N154   1.320       .  A
N153        C157   1.345       .  A
N153       Cu161   2.058       .  S
N154        C155   1.344       .  A
N154       Cu160   2.070       .  S
C155        C156   1.381       .  A
C155        H158   1.082       .  S
C156        C157   1.378       .  A
C156        C303   1.434       .  S
C157        H159   1.082       .  S
Cu160       N163   2.068       .  S
Cu161       N171   2.061       .  S
Cu162       N164   2.092       .  S
Cu162       N170   2.093       .  S
N163        N164   1.322       .  A
N163        C167   1.339       .  A
N164        C165   1.350       .  A
C165        C166   1.394       .  A
C165        H168   1.082       .  S
C166        C167   1.387       .  A
C166        C263   1.526       .  S
C167        H169   1.082       .  S
N170        N171   1.324       .  A
N170        C174   1.350       .  A
N171        C172   1.341       .  A
C172        C173   1.375       .  A
C172        H175   1.082       .  S
C173        C174   1.384       .  A
C173        C301   1.438       .  S
C174        H176   1.082       .  S
N177        N178   1.320       .  A
N177        C181   1.345       .  A
N177       Cu185   2.058       .  S
N178        C179   1.344       .  A
N178       Cu184   2.070       .  S
C179        C180   1.381       .  A
C179        H182   1.082       .  S
C180        C181   1.378       .  A
C180        C299   1.434       .  S
C181        H183   1.082       .  S
Cu184       N187   2.068       .  S
Cu185       N195   2.061       .  S
Cu186       N188   2.092       .  S
Cu186       N194   2.093       .  S
N187        N188   1.322       .  A
N187        C191   1.339       .  A
N188        C189   1.350       .  A
C189        C190   1.394       .  A
C189        H192   1.082       .  S
C190        C191   1.387       .  A
C190        C264   1.526       .  S
C191        H193   1.082       .  S
N194        N195   1.324       .  A
N194        C198   1.350       .  A
N195        C196   1.341       .  A
C196        C197   1.375       .  A
C196        H199   1.082       .  S
C197        C198   1.384       .  A
C197        C297   1.438       .  S
C198        H200   1.082       .  S
N201        N202   1.320       .  A
N201        C205   1.345       .  A
N201       Cu209   2.058       .  S
N202        C203   1.344       .  A
N202       Cu208   2.070       .  S
C203        C204   1.381       .  A
C203        H206   1.082       .  S
C204        C205   1.378       .  A
C204        C295   1.434       .  S
C205        H207   1.082       .  S
Cu208       N211   2.068       .  S
Cu209       N219   2.060       .  S
Cu210       N212   2.092       .  S
Cu210       N218   2.093       .  S
N211        N212   1.322       .  A
N211        C215   1.339       .  A
N212        C213   1.350       .  A
C213        C214   1.394       .  A
C213        H216   1.082       .  S
C214        C215   1.387       .  A
C214        C264   1.526   1_655  S
C215        H217   1.082   1_655  S
N218        N219   1.324       .  A
N218        C222   1.350       .  A
N219        C220   1.341       .  A
C220        C221   1.375       .  A
C220        H223   1.082       .  S
C221        C222   1.384       .  A
C221        C298   1.438       .  S
C222        H224   1.082       .  S
O225       Cu233   2.001       .  S
O225        C235   1.275       .  A
O226       Cu233   2.001   1_655  S
O226        C236   1.275       .  A
O227       Cu233   2.007   1_655  S
O227        C237   1.276       .  A
O228       Cu233   2.007       .  S
O228        C238   1.276       .  A
O229       Cu234   2.001       .  S
O229        C238   1.275       .  A
O230       Cu234   2.001   1_655  S
O230        C237   1.275       .  A
O231       Cu234   2.007   1_655  S
O231        C236   1.276       .  A
O232       Cu234   2.007       .  S
O232        C235   1.276       .  A
Cu233      Cu234   2.381       .  S
C235        C304   1.431       .  S
C236        C296   1.431       .  S
C237        C293   1.431       .  S
C238        C300   1.431       .  S
N239        N240   1.320       .  A
N239        C243   1.345       .  A
N239       Cu247   2.058       .  S
N240        C241   1.344       .  A
N240       Cu246   2.070       .  S
C241        C242   1.381       .  A
C241        H244   1.082       .  S
C242        C243   1.378       .  A
C242        C294   1.434       .  S
C243        H245   1.082       .  S
Cu246       N249   2.068       .  S
Cu247       N257   2.060       .  S
Cu248       N250   2.092       .  S
Cu248       N256   2.093       .  S
N249        N250   1.322       .  A
N249        C253   1.339       .  A
N250        C251   1.350       .  A
C251        C252   1.394       .  A
C251        H254   1.082       .  S
C252        C253   1.387       .  A
C252        C263   1.526   1_655  S
C253        H255   1.082   1_655  S
N256        N257   1.324       .  A
N256        C260   1.350       .  A
N257        C258   1.341       .  A
C258        C259   1.375       .  A
C258        H261   1.082       .  S
C259        C260   1.384       .  A
C259        C302   1.438       .  S
C260        H262   1.082       .  S
C263        C289   1.470       .  S
C263        C291   1.470       .  S
C264        C286   1.470       .  S
C264        C288   1.470       .  S
C265        C266   1.400       .  A
C265        C270   1.402       .  A
C265        C292   1.439       .  S
C266        H271   1.085       .  S
C267        C268   1.402       .  A
C267        C290   1.439       .  S
C268        H272   1.084       .  S
C269        C270   1.403       .  A
C269        C284   1.441       .  S
C270        H273   1.084       .  S
C274        C275   1.400       .  A
C274        C279   1.402       .  A
C274        C285   1.439       .  S
C275        H280   1.085       .  S
C276        C277   1.402       .  A
C276        C287   1.439       .  S
C277        H281   1.084   1_565  S
C278        C279   1.403   1_545  A
C278        C283   1.441       .  S
C279        H282   1.084   1_565  S
C285        C286   1.206       .  T
C287        C288   1.206       .  T
C289        C290   1.206       .  T
C291        C292   1.206       .  T
C293        C294   1.204       .  T
C295        C296   1.204       .  T
C297        C298   1.207       .  T
C299        C300   1.204       .  T
C301        C302   1.207       .  T
C303        C304   1.204       .  T
