geometry optimzed in LAMMPS
_audit_creation_date              2020-11-30 
_audit_creation_method            'lammps2cif' 
_symmetry_space_group_name_H-M    'P1' 
_symmetry_Int_Tables_number       1 
_symmetry_cell_setting            triclinic 
loop_ 
_symmetry_equiv_pos_as_xyz 
  x,y,z 
_cell_length_a                    20.60462153 
_cell_length_b                    67.92973607642628 
_cell_length_c                    28.358220012008644 
_cell_angle_alpha                 89.85735446615168 
_cell_angle_beta                  86.98673358455356 
_cell_angle_gamma                 89.42841719970224 
loop_ 
_atom_site_label 
_atom_site_type_symbol 
_atom_site_fract_x 
_atom_site_fract_y 
_atom_site_fract_z 
_atom_site_charge 
C1          C  0.32802922  0.36015995  0.48195408     0.03000
C2          C  0.27916570  0.37490905  0.48396146    -0.13100
C3          C  0.21350660  0.36977798  0.49300455     0.00500
C4          C  0.19692662  0.35008827  0.50024128    -0.11700
C5          C  0.24467197  0.33526053  0.49778313     0.03000
C6          C  0.30994684  0.34040604  0.48939637    -0.11100
H7          H  0.29183604  0.39015832  0.47750878     0.08600
H8          H  0.14625484  0.34626055  0.50670020     0.06100
H9          H  0.34673622  0.32888565  0.48769698     0.06000
C10         C  0.31873193  0.46131070  0.47032259     0.03000
C11         C  0.26969045  0.44703486  0.47419721    -0.13100
C12         C  0.20448780  0.45272216  0.48402355     0.00500
C13         C  0.18850727  0.47262162  0.49086609    -0.11700
C14         C  0.23679784  0.48703517  0.48658632     0.03000
C15         C  0.30150793  0.48127885  0.47596928    -0.11100
H16         H  0.28209060  0.43160300  0.46936402     0.08600
H17         H  0.13822406  0.47691928  0.49844082     0.06100
H18         H  0.33905031  0.49235981  0.47390600     0.06000
C19         C  0.80146500  0.45934977  0.46945997     0.03000
C20         C  0.81596613  0.47926651  0.47636089    -0.13100
C21         C  0.87838439  0.48503362  0.48745575     0.00500
C22         C  0.92751048  0.47073387  0.49083219    -0.11700
C23         C  0.91465749  0.45084548  0.48251375     0.03000
C24         C  0.85130825  0.44510443  0.47236659    -0.11100
H25         H  0.77774726  0.49030870  0.47494655     0.08600
H26         H  0.97604855  0.47512594  0.49913501     0.06100
H27         H  0.84093028  0.42970195  0.46676373     0.06000
O28         O  0.12689188  0.43246989  0.52546648    -0.73100
O29         O  0.99388686  0.38904073  0.52869953    -0.74000
O30         O  0.13336864  0.39091418  0.52995228    -0.62700
O31         O  0.98786198  0.43090677  0.52446913    -0.71100
O32         O  0.99462887  0.42949473  0.44611452    -0.70600
O33         O  0.14021371  0.38966211  0.45156522    -0.61900
O34         O  0.00069123  0.38801545  0.45031733    -0.74400
O35         O  0.13426761  0.43080498  0.44711681    -0.73200
Cu36       Cu  0.06018159  0.41087741  0.52994460     1.04600
Cu37       Cu  0.06763508  0.40944846  0.44610041     1.04300
C38         C  0.15269801  0.43799397  0.48569727     0.93100
C39         C  0.97553873  0.38200378  0.48982695     0.92300
C40         C  0.16057742  0.38438866  0.49149264     0.84400
C41         C  0.96791393  0.43629105  0.48446441     0.90700
C42         C  0.81140052  0.35833257  0.47747678     0.03000
C43         C  0.82754803  0.33851210  0.48557901    -0.13100
C44         C  0.89081643  0.33274247  0.49575482     0.00500
C45         C  0.93892144  0.34718578  0.49855507    -0.11700
C46         C  0.92400697  0.36708480  0.49014740     0.03000
C47         C  0.86017271  0.37261798  0.47980797    -0.11100
H48         H  0.79004015  0.32744849  0.48520420     0.08600
H49         H  0.98818432  0.34291493  0.50597729     0.06100
H50         H  0.84879701  0.38794898  0.47309364     0.06000
C51         C  0.05573382  0.16896900  0.58925999     0.86400
C52         C  0.10644806  0.18526385  0.57735091    -0.53900
C53         C  0.09847615  0.19475896  0.53512153     0.09300
C54         C  0.04199446  0.18622900  0.50832214     0.20300
C55         C  0.98971892  0.17941707  0.58492369    -0.54600
C56         C  0.98337406  0.18940304  0.54339725     0.09400
C57         C  0.06258625  0.15503459  0.54687172    -0.54100
C58         C  0.05486104  0.16385936  0.50430283     0.10000
H59         H  0.14200317  0.18993959  0.60149857     0.14500
H60         H  0.03544016  0.19293082  0.47343099     0.00200
H61         H  0.95651810  0.18181176  0.61546896     0.14800
H62         H  0.07176004  0.13937053  0.55060051     0.14600
C63         C  0.03181514  0.65134803  0.58919939     0.86400
C64         C  0.97428405  0.63748184  0.58321894    -0.53900
C65         C  0.97925264  0.62643043  0.54287829     0.09300
C66         C  0.04022664  0.63084768  0.51136237     0.20300
C67         C  0.09215541  0.63760469  0.58457176    -0.54600
C68         C  0.09581835  0.62668773  0.54395089     0.09400
C69         C  0.03659912  0.66381284  0.54393338    -0.54100
C70         C  0.04053466  0.65317583  0.50328030     0.10000
H71         H  0.93718620  0.63491964  0.61115011     0.14500
H72         H  0.04408345  0.62204554  0.47835515     0.00200
H73         H  0.12536383  0.63528192  0.61257361     0.14800
H74         H  0.03815407  0.67972397  0.54338070     0.14600
N75         N  0.06195102  0.06751684  0.94796718    -0.27400
N76         N  0.06510388  0.08397643  0.97250579    -0.35300
C77         C  0.06889798  0.09935168  0.94252890     0.00900
C78         C  0.06731811  0.09234757  0.89675702     0.07000
C79         C  0.06294681  0.07205270  0.90165257    -0.06100
H80         H  0.07046832  0.11457598  0.95345988     0.07600
H81         H  0.06036868  0.06134557  0.87365299     0.08800
Cu82       Cu  0.06047251  0.08511454  0.04583367     0.44200
Cu83       Cu  0.05488133  0.03970648  0.97911087     0.42000
Cu84       Cu  0.05612652  0.03880401  0.10785359     0.43900
N85         N  0.05858965  0.08289022  0.11899269    -0.34800
N86         N  0.05954509  0.06589312  0.14174722    -0.29000
C87         C  0.06157017  0.06940443  0.18836308    -0.05100
C88         C  0.06108192  0.08960897  0.19538995     0.07100
C89         C  0.05890027  0.09765911  0.15053399     0.00900
H90         H  0.06239943  0.05806847  0.21519902     0.08500
H91         H  0.05902438  0.11312429  0.14134312     0.07600
N92         N  0.04905883  0.01378604  0.06627232    -0.36200
N93         N  0.04849298  0.01406235  0.01968375    -0.28400
C94         C  0.04436380  0.99544950  0.00401782    -0.03700
C95         C  0.04229851  0.98270380  0.04254403     0.05000
C96         C  0.04524993  0.99502214  0.08139570     0.03100
H97         H  0.04366989  0.99159905  0.96708928     0.08200
H98         H  0.04546441  0.99078217  0.11814516     0.07000
N99         N  0.01500988  0.75014659  0.95127954    -0.27400
N100        N  0.01337084  0.73318848  0.97412380    -0.35300
C101        C  0.01185928  0.71842032  0.94279493     0.00900
C102        C  0.01252079  0.72642940  0.89775114     0.07000
C103        C  0.01440774  0.74663894  0.90467482    -0.06100
H104        H  0.01020790  0.70302420  0.95241836     0.07600
H105        H  0.01635307  0.75803006  0.87795384     0.08800
Cu106      Cu  0.01409597  0.73088844  0.04669478     0.44200
Cu107      Cu  0.01945343  0.77718770  0.98470492     0.42000
Cu108      Cu  0.01665321  0.77718805  0.11185664     0.43900
N109        N  0.01656371  0.73269620  0.11924299    -0.34800
N110        N  0.01792969  0.74946045  0.14275032    -0.29000
C111        C  0.02206944  0.74546217  0.18888915    -0.05100
C112        C  0.02308048  0.72522022  0.19477658     0.07100
C113        C  0.01929336  0.71759303  0.14983980     0.00900
H114        H  0.02427357  0.75653798  0.21608217     0.08500
H115        H  0.02024308  0.70222958  0.13985042     0.07600
N116        N  0.02214522  0.80273464  0.07157155    -0.36200
N117        N  0.02396492  0.80254155  0.02497072    -0.28400
C118        C  0.02910835  0.82108567  0.00885466    -0.03700
C119        C  0.03055404  0.83379401  0.04708703     0.05000
C120        C  0.02594211  0.82149546  0.08639195     0.03100
H121        H  0.03143890  0.82485934  0.97177740     0.08200
H122        H  0.02550214  0.82574208  0.12312064     0.07000
C123        C  0.04004973  0.96073875  0.04216630    -0.01400
C124        C  0.04013064  0.95043162  0.99936387    -0.09400
C125        C  0.03965967  0.92987647  0.99848067    -0.18300
C126        C  0.03905739  0.91871521  0.04066486     0.04100
C127        C  0.03824129  0.92913462  0.08407742     0.18300
C128        C  0.03872133  0.94985765  0.08445270    -0.19700
C129        C  0.03700695  0.91880795  0.12692690    -0.20900
C130        C  0.03616006  0.89832492  0.12763852    -0.19500
C131        C  0.03675518  0.88760600  0.08550299     0.19700
C132        C  0.03877146  0.89764389  0.04139136     0.01800
C133        C  0.04030081  0.88613093  0.99993644    -0.14200
C134        C  0.03836075  0.86563292  0.00216025    -0.11900
C135        C  0.03490499  0.85569438  0.04563282     0.01400
C136        C  0.03485749  0.86688646  0.08725508    -0.24100
H137        H  0.04086148  0.95818779  0.96601491     0.09400
H138        H  0.03967760  0.92319514  0.96406659     0.12900
H139        H  0.03824769  0.95742604  0.11800465     0.11700
H140        H  0.03644165  0.92663859  0.16020598     0.12900
H141        H  0.03485210  0.89081426  0.16143312     0.11900
H142        H  0.04284741  0.89249119  0.96506521     0.09000
H143        H  0.03918630  0.85765430  0.96921892     0.12200
H144        H  0.03278479  0.85957040  0.12124810     0.14100
C145        C  0.02486327  0.66296239  0.63532349    -0.01400
C146        C  0.00177543  0.68253353  0.63646802    -0.09400
C147        C  0.99753490  0.69325018  0.67831217    -0.18300
C148        C  0.01466900  0.68468980  0.72130457     0.04100
C149        C  0.03271027  0.66443966  0.72106184     0.18300
C150        C  0.03715427  0.65381094  0.67849587    -0.19700
C151        C  0.04629501  0.65494326  0.76331346    -0.20900
C152        C  0.04308264  0.66520773  0.80576149    -0.19500
C153        C  0.02736764  0.68531222  0.80687593     0.19700
C154        C  0.01345045  0.69539832  0.76459973     0.01800
C155        C  0.00011136  0.71583835  0.76740155    -0.14200
C156        C  0.99970929  0.72574664  0.81043504    -0.11900
C157        C  0.01253093  0.71571406  0.85220453     0.01400
C158        C  0.02622984  0.69544183  0.85003117    -0.24100
H159        H  0.98510964  0.68977051  0.60538526     0.09400
H160        H  0.97934983  0.70813432  0.67590555     0.12900
H161        H  0.05074058  0.63835606  0.67897329     0.11700
H162        H  0.05954412  0.63945877  0.76354336     0.12900
H163        H  0.05380128  0.65742013  0.83787388     0.11900
H164        H  0.99076264  0.72469434  0.73686239     0.09000
H165        H  0.98894804  0.74136471  0.81078807     0.12200
H166        H  0.03730806  0.68748841  0.88180406     0.14100
C167        C  0.04546023  0.66269479  0.45617182    -0.01400
C168        C  0.07962084  0.68030500  0.44989071    -0.09400
C169        C  0.07955833  0.69050605  0.40733880    -0.18300
C170        C  0.04523533  0.68335982  0.36922300     0.04100
C171        C  0.01379272  0.66489122  0.37472136     0.18300
C172        C  0.01394059  0.65478853  0.41805294    -0.19700
C173        C  0.98167630  0.65679049  0.33716023    -0.20900
C174        C  0.97972544  0.66673375  0.29428294    -0.19500
C175        C  0.00845197  0.68523428  0.28834307     0.19700
C176        C  0.04098828  0.69391014  0.32595766     0.01800
C177        C  0.06654666  0.71299865  0.31905946    -0.14200
C178        C  0.06047715  0.72296452  0.27656780    -0.11900
C179        C  0.02942110  0.71426711  0.23934612     0.01400
C180        C  0.00392165  0.69530758  0.24526551    -0.24100
H181        H  0.10656039  0.68634502  0.47816964     0.09400
H182        H  0.10715837  0.70388750  0.40546073     0.12900
H183        H  0.98763266  0.64111831  0.42251332     0.11700
H184        H  0.95793111  0.64266781  0.34096103     0.12900
H185        H  0.95461713  0.66005646  0.26583296     0.11900
H186        H  0.09047033  0.72084288  0.34603996     0.09000
H187        H  0.08085361  0.73754882  0.27278224     0.12200
H188        H  0.97895591  0.68859355  0.21678462     0.14100
C189        C  0.05937267  0.15844015  0.63698497    -0.01400
C190        C  0.09266645  0.16621144  0.67469189    -0.09400
C191        C  0.09414951  0.15631254  0.71797115    -0.18300
C192        C  0.06242799  0.13811955  0.72537470     0.04100
C193        C  0.02798509  0.13040879  0.68758416     0.18300
C194        C  0.02511607  0.14082120  0.64485691    -0.19700
C195        C  0.99718030  0.11218564  0.69233120    -0.20900
C196        C  0.00093635  0.10121925  0.73356270    -0.19500
C197        C  0.03395054  0.10844596  0.77166683     0.19700
C198        C  0.06394867  0.12721207  0.76862008     0.01800
C199        C  0.09377925  0.13420592  0.80907657    -0.14200
C200        C  0.09459861  0.12290595  0.85035411    -0.11900
C201        C  0.06669216  0.10417144  0.85264419     0.01400
C202        C  0.03656391  0.09704605  0.81301374    -0.24100
H203        H  0.11669268  0.18022547  0.67191217     0.09400
H204        H  0.12118725  0.16320745  0.74481978     0.12900
H205        H  0.99683756  0.13493172  0.61707149     0.11700
H206        H  0.97092313  0.10619574  0.66359803     0.12900
H207        H  0.97744193  0.08701554  0.73576490     0.11900
H208        H  0.11627206  0.14844028  0.81013338     0.09000
H209        H  0.11796934  0.12881108  0.88049498     0.12200
H210        H  0.01359202  0.08275669  0.81467522     0.14100
C211        C  0.06292736  0.10030426  0.24085421    -0.01400
C212        C  0.09453745  0.09204739  0.27882232    -0.09400
C213        C  0.09667675  0.10207493  0.32173653    -0.18300
C214        C  0.06590402  0.12065771  0.32842533     0.04100
C215        C  0.03272009  0.12876346  0.29003893     0.18300
C216        C  0.03257273  0.11876314  0.24666034    -0.19700
C217        C  0.99892712  0.14666163  0.29537922    -0.20900
C218        C  0.99639297  0.15656702  0.33829899    -0.19500
C219        C  0.02912148  0.14912854  0.37663770     0.19700
C220        C  0.06558735  0.13130086  0.37198819     0.01800
C221        C  0.10016323  0.12497971  0.41112646    -0.14200
C222        C  0.09725039  0.13563577  0.45331737    -0.11900
C223        C  0.05917313  0.15284034  0.45851222     0.01400
C224        C  0.02533966  0.15944861  0.41967044    -0.24100
H225        H  0.11847896  0.07782797  0.27518186     0.09400
H226        H  0.12174820  0.09472617  0.34927474     0.12900
H227        H  0.00714221  0.12514025  0.21770398     0.11700
H228        H  0.97333312  0.15289710  0.26634859     0.12900
H229        H  0.96889390  0.17022887  0.34143455     0.11900
H230        H  0.13072781  0.11200594  0.41001542     0.09000
H231        H  0.12574714  0.13037248  0.48183077     0.12200
H232        H  0.99474562  0.17247098  0.42283094     0.14100
C233        C  0.95120413  0.20912610  0.54385592    -0.01400
C234        C  0.96449826  0.22247683  0.57973283    -0.09400
C235        C  0.95332131  0.24260165  0.57424250    -0.18300
C236        C  0.92810659  0.25014492  0.53247796     0.04100
C237        C  0.90896882  0.23643410  0.49809447     0.18300
C238        C  0.92140650  0.21615025  0.50376031    -0.19700
C239        C  0.87980807  0.24315016  0.45750887    -0.20900
C240        C  0.86995184  0.26319973  0.45008500    -0.19500
C241        C  0.89122826  0.27707093  0.48217522     0.19700
C242        C  0.92176155  0.27077217  0.52342928     0.01800
C243        C  0.94618352  0.28540312  0.55309698    -0.14200
C244        C  0.93815794  0.30543053  0.54316477    -0.11900
C245        C  0.90512875  0.31154469  0.50374471     0.01400
C246        C  0.88246284  0.29724476  0.47311122    -0.24100
H247        H  0.98840456  0.21755301  0.61082969     0.09400
H248        H  0.96616543  0.25192701  0.60292979     0.12900
H249        H  0.91138656  0.20594328  0.47577171     0.11700
H250        H  0.86454832  0.23282599  0.43130117     0.12900
H251        H  0.84678038  0.26791139  0.41846983     0.11900
H252        H  0.97231766  0.28183307  0.58397701     0.09000
H253        H  0.95630237  0.31620192  0.56717655     0.12200
H254        H  0.85802319  0.30188307  0.44194135     0.14100
C255        C  0.89117746  0.50598727  0.49701580    -0.01400
C256        C  0.91725582  0.51148114  0.53950706    -0.09400
C257        C  0.92652964  0.53128793  0.54995918    -0.18300
C258        C  0.91079131  0.54626788  0.51759778     0.04100
C259        C  0.88685047  0.54051958  0.47363576     0.18300
C260        C  0.87589970  0.52056271  0.46422573    -0.19700
C261        C  0.87508210  0.55468837  0.43907625    -0.20900
C262        C  0.88846031  0.57442961  0.44672676    -0.19500
C263        C  0.91110713  0.58058149  0.48991013     0.19700
C264        C  0.91997474  0.56668040  0.52666131     0.01800
C265        C  0.93792324  0.57381712  0.57083053    -0.14200
C266        C  0.95114245  0.59369063  0.57708968    -0.11900
C267        C  0.94800800  0.60701119  0.53950018     0.01400
C268        C  0.92657120  0.60047585  0.49628294    -0.24100
H269        H  0.92952701  0.50037871  0.56514282     0.09400
H270        H  0.94745330  0.53437665  0.58314589     0.12900
H271        H  0.85659874  0.51627945  0.43095321     0.11700
H272        H  0.85709061  0.55040267  0.40540883     0.12900
H273        H  0.88086887  0.58496420  0.41873058     0.11900
H274        H  0.94262109  0.56438888  0.60109891     0.09000
H275        H  0.96790861  0.59841149  0.61077620     0.12200
H276        H  0.92393614  0.61079236  0.46717996     0.14100
C277        C  0.38847987  0.45581730  0.46217231    -0.01400
C278        C  0.41803188  0.44201832  0.49119605    -0.09400
C279        C  0.48581235  0.43957897  0.48920124    -0.18300
C280        C  0.52616933  0.45088176  0.45774486     0.04100
C281        C  0.49520476  0.46380738  0.42616365     0.18300
C282        C  0.42731719  0.46609717  0.42860946    -0.19700
C283        C  0.53220808  0.47509340  0.39361106    -0.20900
C284        C  0.59958159  0.47462551  0.39319661    -0.19500
C285        C  0.63168961  0.46294407  0.42548954     0.19700
C286        C  0.59583953  0.45052733  0.45760647     0.01800
C287        C  0.63137879  0.43909716  0.48946335    -0.14200
C288        C  0.69904406  0.44086407  0.49108580    -0.11900
C289        C  0.73321196  0.45402925  0.46112463     0.01400
C290        C  0.69939505  0.46443318  0.42731677    -0.24100
H291        H  0.38892508  0.43383618  0.51727423     0.09400
H292        H  0.50533650  0.42924309  0.51372169     0.12900
H293        H  0.40460184  0.47655799  0.40550502     0.11700
H294        H  0.50883433  0.48480139  0.36914629     0.12900
H295        H  0.62674205  0.48398960  0.36841577     0.11900
H296        H  0.60793261  0.42929635  0.51479305     0.09000
H297        H  0.72419785  0.43273909  0.51764034     0.12200
H298        H  0.72573354  0.47454883  0.40383880     0.14100
C299        C  0.22007373  0.50807718  0.49436495    -0.01400
C300        C  0.24387271  0.52251086  0.46281166    -0.09400
C301        C  0.22896812  0.54239878  0.47048698    -0.18300
C302        C  0.19016889  0.54850168  0.51055885     0.04100
C303        C  0.16721865  0.53375461  0.54285036     0.18300
C304        C  0.18156814  0.51381552  0.53418517    -0.19700
C305        C  0.13045936  0.53897143  0.58385944    -0.20900
C306        C  0.11623148  0.55858647  0.59382679    -0.19500
C307        C  0.13694447  0.57342654  0.56240876     0.19700
C308        C  0.17330139  0.56863806  0.51988831     0.02800
C309        C  0.18919901  0.58415520  0.48800706    -0.14200
C310        C  0.16763458  0.60340827  0.49731747    -0.11900
C311        C  0.13219098  0.60791183  0.53932419     0.01400
C312        C  0.11876481  0.59298132  0.57233358    -0.24100
H313        H  0.27381336  0.51835916  0.43181700     0.09400
H314        H  0.24928618  0.55264801  0.44481677     0.12900
H315        H  0.16396882  0.50271481  0.55913482     0.11700
H316        H  0.11288826  0.52779762  0.60858521     0.12900
H317        H  0.08765676  0.56214596  0.62590894     0.11900
H318        H  0.21539847  0.58173501  0.45460728     0.09000
H319        H  0.17667663  0.61472913  0.47086785     0.12200
H320        H  0.08956760  0.59637193  0.60426017     0.14100
C321        C  0.39802219  0.36473408  0.47148619    -0.01400
C322        C  0.42874732  0.37993427  0.49484032    -0.09400
C323        C  0.49663949  0.38182682  0.49094245    -0.18300
C324        C  0.53598872  0.36843705  0.46357778     0.04100
C325        C  0.50389901  0.35391925  0.43755227     0.18300
C326        C  0.43595419  0.35241014  0.44121968    -0.19700
C327        C  0.53981110  0.34029254  0.40970079    -0.20900
C328        C  0.60719333  0.34003293  0.40903906    -0.19500
C329        C  0.64038910  0.35342696  0.43609979     0.19700
C330        C  0.60571756  0.36822045  0.46273047     0.01800
C331        C  0.64244383  0.38145720  0.48892188    -0.14200
C332        C  0.70994125  0.37908202  0.49141787    -0.11900
C333        C  0.74288864  0.36354755  0.46774462     0.01400
C334        C  0.70797933  0.35141663  0.43840587    -0.24100
H335        H  0.40058811  0.38977328  0.51810998     0.09400
H336        H  0.51715173  0.39339201  0.51117856     0.12900
H337        H  0.41254525  0.34095311  0.42189304     0.11700
H338        H  0.51555040  0.32930124  0.38951340     0.12900
H339        H  0.63346408  0.32884025  0.38836583     0.11900
H340        H  0.62001679  0.39328399  0.50928937     0.09000
H341        H  0.73579278  0.38878766  0.51398893     0.12200
H342        H  0.73328922  0.33968955  0.41887710     0.14100
C343        C  0.12683234  0.21460050  0.52346357    -0.01400
C344        C  0.09459127  0.22748943  0.49341553    -0.09400
C345        C  0.11403547  0.24683559  0.48678174    -0.18300
C346        C  0.16704271  0.25438433  0.51006607     0.04100
C347        C  0.20147512  0.24137183  0.53934891     0.18300
C348        C  0.18169181  0.22167814  0.54537960    -0.19700
C349        C  0.25452793  0.24824080  0.56324239    -0.20900
C350        C  0.27346476  0.26781750  0.55914908    -0.19500
C351        C  0.23989893  0.28101091  0.53099510     0.19700
C352        C  0.18635299  0.27444374  0.50581271     0.01800
C353        C  0.15394954  0.28830883  0.47785215    -0.14200
C354        C  0.17330433  0.30785212  0.47554844    -0.11900
C355        C  0.22551830  0.31433683  0.50079754     0.01400
C356        C  0.25912194  0.30080037  0.52813987    -0.24100
H357        H  0.05187056  0.22328983  0.47585215     0.09400
H358        H  0.08521138  0.25558212  0.46385543     0.12900
H359        H  0.20865201  0.21206680  0.56791328     0.11700
H360        H  0.28114425  0.23845746  0.58567938     0.12900
H361        H  0.31438354  0.27270709  0.57841769     0.11900
H362        H  0.11329843  0.28463327  0.45731164     0.09000
H363        H  0.14749673  0.31796389  0.45342047     0.12200
H364        H  0.29953898  0.30576497  0.54787038     0.14100
loop_ 
_geom_bond_atom_site_label_1 
_geom_bond_atom_site_label_2 
_geom_bond_distance 
_geom_bond_site_symmetry_2 
_ccdc_geom_bond_type 
C1            C2   1.412       .  A
C1            C6   1.409       .  A
C1          C321   1.493       .  S
C2            C3   1.411       .  A
C2            H7   1.084       .  S
C3            C4   1.396       .  A
C3           C40   1.469       .  S
C4            C5   1.400       .  A
C4            H8   1.085       .  S
C5            C6   1.401       .  A
C5          C355   1.480       .  S
C6            H9   1.083       .  S
C10          C11   1.407       .  A
C10          C15   1.406       .  A
C10         C277   1.488       .  S
C11          C12   1.408       .  A
C11          H16   1.084       .  S
C12          C13   1.400       .  A
C12          C38   1.469       .  S
C13          C14   1.403       .  A
C13          H17   1.084       .  S
C14          C15   1.403       .  A
C14         C299   1.481       .  S
C15          H18   1.084       .  S
C19          C20   1.405       .  A
C19          C24   1.409       .  A
C19         C289   1.487       .  S
C20          C21   1.400       .  A
C20          H25   1.084       .  S
C21          C22   1.403       .  A
C21         C255   1.478       .  S
C22          C23   1.402       .  A
C22          H26   1.084       .  S
C23          C24   1.410       .  A
C23          C41   1.473       .  S
C24          H27   1.084       .  S
O28         Cu36   2.019       .  S
O28          C38   1.278       .  A
O29         Cu36   2.028   1_655  S
O29          C39   1.279       .  A
O30         Cu36   2.018       .  S
O30          C40   1.278       .  A
O31         Cu36   2.020   1_655  S
O31          C41   1.278       .  A
O32         Cu37   2.019   1_655  S
O32          C41   1.278       .  A
O33         Cu37   2.013       .  S
O33          C40   1.277       .  A
O34         Cu37   2.015       .  S
O34          C39   1.277   1_455  A
O35         Cu37   2.009       .  S
O35          C38   1.277       .  A
Cu36        Cu37   2.377       .  S
C39          C46   1.475       .  S
C42          C43   1.405       .  A
C42          C47   1.408       .  A
C42         C333   1.492       .  S
C43          C44   1.402       .  A
C43          H48   1.084       .  S
C44          C45   1.407       .  A
C44         C245   1.486       .  S
C45          C46   1.406       .  A
C45          H49   1.084       .  S
C46          C47   1.410       .  A
C47          H50   1.084       .  S
C51          C52   1.554       .  S
C51          C57   1.532       .  S
C51          C55   1.538   1_455  S
C51         C189   1.534       .  S
C52          H59   1.079       .  S
C52          C53   1.375       .  D
C53          C54   1.542       .  S
C53         C343   1.503       .  S
C54          C58   1.543       .  S
C54          C56   1.538   1_455  S
C54          H60   1.102       .  S
C55          H61   1.087       .  S
C55          C56   1.369       .  D
C56         C233   1.489       .  S
C57          H62   1.085       .  S
C57          C58   1.363       .  D
C58         C223   1.499       .  S
C63          C64   1.538   1_455  S
C63          C69   1.535       .  S
C63          C67   1.548       .  S
C63         C145   1.529       .  S
C64          H71   1.086       .  S
C64          C65   1.369       .  D
C65          C66   1.535   1_655  S
C65         C267   1.479       .  S
C66          C70   1.533       .  S
C66          C68   1.533       .  S
C66          H72   1.111       .  S
C67          H73   1.085       .  S
C67          C68   1.370       .  D
C68         C311   1.475       .  S
C69          H74   1.082       .  S
C69          C70   1.360       .  D
C70         C167   1.482       .  S
N75          N76   1.322       .  A
N75          C79   1.347       .  A
N75         Cu83   2.087       .  S
N76          C77   1.345       .  A
N76         Cu82   2.078   1_556  S
C77          C78   1.386       .  A
C77          H80   1.082       .  S
C78          C79   1.389       .  A
C78         C201   1.485       .  S
C79          H81   1.082       .  S
Cu82         N85   2.078       .  S
Cu83         N93   2.087   1_556  S
Cu84         N86   2.082       .  S
Cu84         N92   2.082       .  S
N85          N86   1.322       .  A
N85          C89   1.346       .  A
N86          C87   1.347       .  A
C87          C88   1.387       .  A
C87          H90   1.082       .  S
C88          C89   1.386       .  A
C88         C211   1.484       .  S
C89          H91   1.082       .  S
N92          N93   1.322       .  A
N92          C96   1.346   1_545  A
N93          C94   1.346   1_545  A
C94          C95   1.391       .  A
C94          H97   1.081   1_554  S
C95          C96   1.389       .  A
C95         C123   1.493       .  S
C96          H98   1.081       .  S
N99         N100   1.320       .  A
N99         C103   1.344       .  A
N99        Cu107   2.074       .  S
N100        C101   1.343       .  A
N100       Cu106   2.064   1_556  S
C101        C102   1.387       .  A
C101        H104   1.081       .  S
C102        C103   1.388       .  A
C102        C157   1.484       .  S
C103        H105   1.081       .  S
Cu106       N109   2.065       .  S
Cu107       N117   2.074   1_556  S
Cu108       N110   2.076       .  S
Cu108       N116   2.076       .  S
N109        N110   1.322       .  A
N109        C113   1.345       .  A
N110        C111   1.343       .  A
C111        C112   1.385       .  A
C111        H114   1.082       .  S
C112        C113   1.383       .  A
C112        C179   1.476       .  S
C113        H115   1.082       .  S
N116        N117   1.320       .  A
N116        C120   1.347       .  A
N117        C118   1.342       .  A
C118        C119   1.389       .  A
C118        H121   1.080   1_554  S
C119        C120   1.391       .  A
C119        C135   1.492       .  S
C120        H122   1.081       .  S
C123        C124   1.403   1_554  A
C123        C128   1.406       .  A
C124        C125   1.397       .  A
C124        H137   1.081       .  S
C125        C126   1.414   1_556  A
C125        H138   1.077       .  S
C126        C132   1.432       .  A
C126        C127   1.421       .  A
C127        C129   1.401       .  A
C127        C128   1.408       .  A
C128        H139   1.082       .  S
C129        C130   1.392       .  A
C129        H140   1.084       .  S
C130        C131   1.400       .  A
C130        H141   1.084       .  S
C131        C132   1.422       .  A
C131        C136   1.409       .  A
C132        C133   1.412   1_554  A
C133        C134   1.395   1_556  A
C133        H142   1.077       .  S
C134        C135   1.403       .  A
C134        H143   1.080   1_554  S
C135        C136   1.406       .  A
C136        H144   1.082       .  S
C145        C146   1.407       .  A
C145        C150   1.405       .  A
C146        C147   1.392   1_455  A
C146        H159   1.078   1_455  S
C147        C148   1.410   1_655  A
C147        H160   1.078       .  S
C148        C154   1.428       .  A
C148        C149   1.421       .  A
C149        C151   1.399       .  A
C149        C150   1.406       .  A
C150        H161   1.084       .  S
C151        C152   1.391       .  A
C151        H162   1.084       .  S
C152        C153   1.400       .  A
C152        H163   1.084       .  S
C153        C154   1.420       .  A
C153        C158   1.404       .  A
C154        C155   1.414       .  A
C155        C156   1.395   1_455  A
C155        H164   1.078   1_455  S
C156        C157   1.401   1_655  A
C156        H165   1.082       .  S
C157        C158   1.404       .  A
C158        H166   1.083       .  S
C167        C168   1.400       .  A
C167        C172   1.401       .  A
C168        C169   1.390       .  A
C168        H181   1.083       .  S
C169        C170   1.412       .  A
C169        H182   1.077       .  S
C170        C176   1.426       .  A
C170        C171   1.422       .  A
C171        C173   1.400   1_455  A
C171        C172   1.406       .  A
C172        H183   1.084   1_455  S
C173        C174   1.392       .  A
C173        H184   1.084       .  S
C174        C175   1.401   1_655  A
C174        H185   1.084       .  S
C175        C176   1.422       .  A
C175        C180   1.406       .  A
C176        C177   1.414       .  A
C177        C178   1.391       .  A
C177        H186   1.077       .  S
C178        C179   1.398       .  A
C178        H187   1.083       .  S
C179        C180   1.402       .  A
C180        H188   1.084   1_455  S
C189        C190   1.407       .  A
C189        C194   1.407       .  A
C190        C191   1.400       .  A
C190        H203   1.078       .  S
C191        C192   1.414       .  A
C191        H204   1.078       .  S
C192        C198   1.433       .  A
C192        C193   1.420       .  A
C193        C195   1.400   1_455  A
C193        C194   1.405       .  A
C194        H205   1.084   1_455  S
C195        C196   1.390   1_655  A
C195        H206   1.084       .  S
C196        C197   1.399       .  A
C196        H207   1.084   1_455  S
C197        C198   1.423       .  A
C197        C202   1.407       .  A
C198        C199   1.415       .  A
C199        C200   1.399       .  A
C199        H208   1.078       .  S
C200        C201   1.402       .  A
C200        H209   1.083       .  S
C201        C202   1.402       .  A
C202        H210   1.084       .  S
C211        C212   1.401       .  A
C211        C216   1.402       .  A
C212        C213   1.399       .  A
C212        H225   1.083       .  S
C213        C214   1.416       .  A
C213        H226   1.078       .  S
C214        C220   1.433       .  A
C214        C215   1.422       .  A
C215        C217   1.400   1_455  A
C215        C216   1.407       .  A
C216        H227   1.084       .  S
C217        C218   1.391       .  A
C217        H228   1.084       .  S
C218        C219   1.400   1_655  A
C218        H229   1.084       .  S
C219        C220   1.422       .  A
C219        C224   1.407       .  A
C220        C221   1.414       .  A
C221        C222   1.398       .  A
C221        H230   1.078       .  S
C222        C223   1.405       .  A
C222        H231   1.082       .  S
C223        C224   1.405       .  A
C224        H232   1.082   1_455  S
C233        C234   1.404       .  A
C233        C238   1.401       .  A
C234        C235   1.394       .  A
C234        H247   1.083       .  S
C235        C236   1.411       .  A
C235        H248   1.078       .  S
C236        C242   1.430       .  A
C236        C237   1.423       .  A
C237        C239   1.399       .  A
C237        C238   1.409       .  A
C238        H249   1.085       .  S
C239        C240   1.392       .  A
C239        H250   1.084       .  S
C240        C241   1.401       .  A
C240        H251   1.084       .  S
C241        C242   1.420       .  A
C241        C246   1.405       .  A
C242        C243   1.417       .  A
C243        C244   1.399       .  A
C243        H252   1.078       .  S
C244        C245   1.399       .  A
C244        H253   1.083       .  S
C245        C246   1.404       .  A
C246        H254   1.085       .  S
C255        C256   1.398       .  A
C255        C260   1.401       .  A
C256        C257   1.396       .  A
C256        H269   1.084       .  S
C257        C258   1.415       .  A
C257        H270   1.078       .  S
C258        C264   1.427       .  A
C258        C259   1.422       .  A
C259        C261   1.400       .  A
C259        C260   1.405       .  A
C260        H271   1.085       .  S
C261        C262   1.392       .  A
C261        H272   1.084       .  S
C262        C263   1.399       .  A
C262        H273   1.084       .  S
C263        C264   1.422       .  A
C263        C268   1.406       .  A
C264        C265   1.413       .  A
C265        C266   1.393       .  A
C265        H274   1.078       .  S
C266        C267   1.400       .  A
C266        H275   1.083       .  S
C267        C268   1.399       .  A
C268        H276   1.085       .  S
C277        C278   1.402       .  A
C277        C282   1.401       .  A
C278        C279   1.403       .  A
C278        H291   1.083       .  S
C279        C280   1.417       .  A
C279        H292   1.077       .  S
C280        C286   1.435       .  A
C280        C281   1.423       .  A
C281        C283   1.398       .  A
C281        C282   1.404       .  A
C282        H293   1.085       .  S
C283        C284   1.388       .  A
C283        H294   1.084       .  S
C284        C285   1.398       .  A
C284        H295   1.084       .  S
C285        C286   1.423       .  A
C285        C290   1.403       .  A
C286        C287   1.418       .  A
C287        C288   1.404       .  A
C287        H296   1.077       .  S
C288        C289   1.401       .  A
C288        H297   1.083       .  S
C289        C290   1.400       .  A
C290        H298   1.085       .  S
C299        C300   1.401       .  A
C299        C304   1.399       .  A
C300        C301   1.397       .  A
C300        H313   1.083       .  S
C301        C302   1.415       .  A
C301        H314   1.078       .  S
C302        C308   1.430       .  A
C302        C303   1.423       .  A
C303        C305   1.398       .  A
C303        C304   1.403       .  A
C304        H315   1.085       .  S
C305        C306   1.388       .  A
C305        H316   1.084       .  S
C306        C307   1.399       .  A
C306        H317   1.084       .  S
C307        C308   1.422       .  A
C307        C312   1.402       .  A
C308        C309   1.417       .  A
C309        C310   1.398       .  A
C309        H318   1.077       .  S
C310        C311   1.397       .  A
C310        H319   1.084       .  S
C311        C312   1.398       .  A
C312        H320   1.084       .  S
C321        C322   1.402       .  A
C321        C326   1.403       .  A
C322        C323   1.405       .  A
C322        H335   1.083       .  S
C323        C324   1.418       .  A
C323        H336   1.077       .  S
C324        C330   1.436       .  A
C324        C325   1.422       .  A
C325        C327   1.399       .  A
C325        C326   1.403       .  A
C326        H337   1.084       .  S
C327        C328   1.387       .  A
C327        H338   1.084       .  S
C328        C329   1.398       .  A
C328        H339   1.084       .  S
C329        C330   1.422       .  A
C329        C334   1.403       .  A
C330        C331   1.417       .  A
C331        C332   1.404       .  A
C331        H340   1.077       .  S
C332        C333   1.402       .  A
C332        H341   1.083       .  S
C333        C334   1.402       .  A
C334        H342   1.085       .  S
C343        C344   1.406       .  A
C343        C348   1.408       .  A
C344        C345   1.387       .  A
C344        H357   1.075       .  S
C345        C346   1.407       .  A
C345        H358   1.077       .  S
C346        C352   1.426       .  A
C346        C347   1.421       .  A
C347        C349   1.400       .  A
C347        C348   1.410       .  A
C348        H359   1.082       .  S
C349        C350   1.392       .  A
C349        H360   1.084       .  S
C350        C351   1.400       .  A
C350        H361   1.084       .  S
C351        C352   1.421       .  A
C351        C356   1.406       .  A
C352        C353   1.415       .  A
C353        C354   1.390       .  A
C353        H362   1.077       .  S
C354        C355   1.399       .  A
C354        H363   1.084       .  S
C355        C356   1.402       .  A
C356        H364   1.084       .  S
