geometry optimzed in LAMMPS
_audit_creation_date              2020-11-30 
_audit_creation_method            'lammps2cif' 
_symmetry_space_group_name_H-M    'P1' 
_symmetry_Int_Tables_number       1 
_symmetry_cell_setting            triclinic 
loop_ 
_symmetry_equiv_pos_as_xyz 
  x,y,z 
_cell_length_a                    25.353977973919026 
_cell_length_b                    25.35797179026313 
_cell_length_c                    25.231227072243975 
_cell_angle_alpha                 89.13438289515508 
_cell_angle_beta                  90.42641969006041 
_cell_angle_gamma                 89.04290930019296 
loop_ 
_atom_site_label 
_atom_site_type_symbol 
_atom_site_fract_x 
_atom_site_fract_y 
_atom_site_fract_z 
_atom_site_charge 
C1          C  0.51075652  0.74079612  0.98411988     0.03540
C2          C  0.46322365  0.71173373  0.98193752    -0.12610
C3          C  0.46155657  0.66155372  0.00565940     0.01040
C4          C  0.50680135  0.64383159  0.03291946    -0.11130
C5          C  0.55656121  0.66158382  0.01769326     0.03540
C6          C  0.55873858  0.71295874  0.99658369    -0.10550
H7          H  0.42776216  0.72883075  0.96412664     0.09130
H8          H  0.50441880  0.61042534  0.05894244     0.06660
H9          H  0.59684729  0.73077582  0.99216904     0.06510
C10         C  0.67745825  0.56764802  0.03023861     0.03540
C11         C  0.64855949  0.61642874  0.03184891    -0.12610
C12         C  0.59793590  0.61943240  0.00919377     0.01040
C13         C  0.58135475  0.57526468  0.98197331    -0.11130
C14         C  0.59876348  0.52470670  0.99722824     0.03540
C15         C  0.64980951  0.52048807  0.01880560    -0.10550
H16         H  0.66621998  0.65145262  0.04780432     0.09130
H17         H  0.54789009  0.57927463  0.95675016     0.06660
H18         H  0.66812376  0.48190553  0.02375962     0.06510
C19         C  0.51094928  0.40491091  0.97061593     0.03540
C20         C  0.55897167  0.43276287  0.97775073    -0.12610
C21         C  0.55682703  0.48337823  0.99938478     0.01040
C22         C  0.50776014  0.50062589  0.01741284    -0.11130
C23         C  0.46144193  0.48429335  0.99331795     0.03540
C24         C  0.46202254  0.43346710  0.97236780    -0.10550
H25         H  0.59672561  0.41441230  0.96904446     0.09130
H26         H  0.50594677  0.53389456  0.04223977     0.06660
H27         H  0.42517588  0.41584665  0.96094294     0.06510
C28         C  0.34139361  0.57304537  0.01546678     0.03540
C29         C  0.36887628  0.52469822  0.00636188    -0.12610
C30         C  0.41967703  0.52629675  0.98507056     0.01040
C31         C  0.43750099  0.57577510  0.96815269    -0.11130
C32         C  0.42060455  0.62140956  0.99385199     0.03540
C33         C  0.37050383  0.62044301  0.01673755    -0.10550
H34         H  0.35082198  0.48699914  0.01405291     0.09130
H35         H  0.47057819  0.57752440  0.94241197     0.06660
H36         H  0.35355328  0.65608644  0.03310119     0.06510
C37         C  0.00957150  0.56719137  0.67545489     0.03540
C38         C  0.00129241  0.51888125  0.64882581    -0.12610
C39         C  0.98053253  0.52047498  0.59709837     0.01040
C40         C  0.96354679  0.57001431  0.57738645    -0.11130
C41         C  0.98792376  0.61598853  0.59438299     0.03540
C42         C  0.01037827  0.61476721  0.64512800    -0.10550
H43         H  0.00949908  0.48119823  0.66812955     0.09130
H44         H  0.93876699  0.57182000  0.54304797     0.06660
H45         H  0.02617297  0.65044762  0.66163544     0.06510
C46         C  0.97661630  0.73514347  0.50017923     0.03540
C47         C  0.98958321  0.70750596  0.45337555    -0.12610
C48         C  0.01281534  0.65717762  0.45806934     0.01040
C49         C  0.02787392  0.63976239  0.50891857    -0.11130
C50         C  0.99977226  0.65683769  0.55297007     0.03540
C51         C  0.97550167  0.70680405  0.54925446    -0.10550
H52         H  0.98391609  0.72521165  0.41443752     0.09130
H53         H  0.05418270  0.60666286  0.51303296     0.06660
H54         H  0.95815375  0.72430753  0.58407137     0.06510
C55         C  0.03459382  0.56542233  0.34073547     0.03540
C56         C  0.03333424  0.61363284  0.36886310    -0.12610
C57         C  0.00759761  0.61523909  0.41753112     0.01040
C58         C  0.98169982  0.56984456  0.43368900    -0.11130
C59         C  0.99987921  0.52019331  0.41822323     0.03540
C60         C  0.02380483  0.51742924  0.36847514    -0.10550
H61         H  0.04867002  0.64950706  0.35148410     0.09130
H62         H  0.95502985  0.57237686  0.46577762     0.06660
H63         H  0.03076054  0.47930903  0.35097749     0.06510
C64         C  0.97141617  0.39952863  0.50655079     0.03540
C65         C  0.96875847  0.42826908  0.55477993    -0.12610
C66         C  0.99036757  0.47886237  0.55628947     0.01040
C67         C  0.01691793  0.49560936  0.51116060    -0.11130
C68         C  0.00183306  0.47845787  0.46107521     0.03540
C69         C  0.98133510  0.42759268  0.45835386    -0.10550
H70         H  0.95269467  0.41065269  0.59039349     0.09130
H71         H  0.04115354  0.52914624  0.51384445     0.06660
H72         H  0.97556865  0.40963844  0.42014282     0.06510
C73         C  0.49433951  0.07272474  0.66184236     0.03540
C74         C  0.44541247  0.07705286  0.63421491    -0.12610
C75         C  0.44359394  0.06982192  0.57929956     0.01040
C76         C  0.49037136  0.05544521  0.55359453    -0.11130
C77         C  0.53938093  0.06559207  0.57703915     0.03540
C78         C  0.54170339  0.07099916  0.63216466    -0.10550
H79         H  0.40966770  0.08789522  0.65491894     0.09130
H80         H  0.48892280  0.04962514  0.51104763     0.06660
H81         H  0.57968721  0.07567111  0.65122237     0.06510
C82         C  0.65762037  0.08111678  0.48612154     0.03540
C83         C  0.63008901  0.06620014  0.53247373    -0.12610
C84         C  0.57975877  0.08768671  0.54057764     0.01040
C85         C  0.56163393  0.12685950  0.50516350    -0.11130
C86         C  0.57870713  0.12783826  0.45240281     0.03540
C87         C  0.62932785  0.10613788  0.44355876    -0.10550
H88         H  0.64806168  0.04035624  0.56227473     0.09130
H89         H  0.52782878  0.14904466  0.51705254     0.06660
H90         H  0.64759563  0.11044920  0.40513521     0.06510
C91         C  0.49312478  0.10163169  0.33251931     0.03540
C92         C  0.54046662  0.11550497  0.35931133    -0.12610
C93         C  0.53808299  0.13956134  0.40919416     0.01040
C94         C  0.48821118  0.15894524  0.42407183    -0.11130
C95         C  0.44327357  0.12991234  0.41079433     0.03540
C96         C  0.44613001  0.10153908  0.36310014    -0.10550
H97         H  0.57865920  0.10738949  0.34245792     0.09130
H98         H  0.48602293  0.18865736  0.45410672     0.06660
H99         H  0.41285410  0.07887724  0.35020297     0.06510
C100        C  0.32387238  0.07487666  0.48818491     0.03540
C101        C  0.35198713  0.06685931  0.53698786    -0.12610
C102        C  0.40035104  0.09126724  0.54433970     0.01040
C103        C  0.41543695  0.12794044  0.50610422    -0.11130
C104        C  0.40193316  0.11977279  0.45285182     0.03540
C105        C  0.35427951  0.09285958  0.44416903    -0.10550
H106        H  0.33767096  0.04298499  0.56930748     0.09130
H107        H  0.44640593  0.15347759  0.51736157     0.06660
H108        H  0.34121655  0.08609341  0.40413071     0.06510
O109        O  0.98989380  0.98731247  0.53813841    -0.72530
O110        O  0.98668568  0.14463321  0.53930739    -0.73510
O111        O  0.90925569  0.06500392  0.53786434    -0.62130
O112        O  0.06849178  0.06569309  0.53797773    -0.70540
O113        O  0.06680435  0.06801124  0.45018543    -0.70090
O114        O  0.90925209  0.06797343  0.44974966    -0.61350
O115        O  0.98518146  0.14762585  0.45140021    -0.73850
O116        O  0.98802305  0.98821373  0.45021228    -0.72630
Cu117      Cu  0.98878263  0.06565266  0.54137038     1.04560
Cu118      Cu  0.98758271  0.06801668  0.44730481     1.04330
C119        C  0.98828109  0.96277593  0.49442256     0.93670
C120        C  0.98387985  0.17113957  0.49591213     0.92810
C121        C  0.88453480  0.06634650  0.49349515     0.84950
C122        C  0.09287219  0.06645130  0.49374904     0.91230
O123        O  0.46011782  0.99561948  0.99693703    -0.72530
O124        O  0.46100184  0.15416156  0.99285245    -0.73510
O125        O  0.46047351  0.07397069  0.91677496    -0.62130
O126        O  0.45979964  0.07557621  0.07555906    -0.70540
O127        O  0.54695192  0.07078633  0.07788005    -0.70090
O128        O  0.54794518  0.07515156  0.91738214    -0.61350
O129        O  0.54846219  0.15157709  0.99789000    -0.73850
O130        O  0.54748813  0.99373902  0.99554227    -0.72630
Cu131      Cu  0.45734678  0.07487364  0.99579044     1.04560
Cu132      Cu  0.55078021  0.07268365  0.99745448     1.04330
C133        C  0.50366395  0.96961030  0.99485941     0.93670
C134        C  0.50514635  0.17776413  0.99376524     0.92810
C135        C  0.50411547  0.07494657  0.89191900     0.84950
C136        C  0.50288919  0.07332280  0.10226134     0.91230
O137        O  0.93128943  0.52148302  0.01254808    -0.72530
O138        O  0.09001290  0.52230006  0.01074247    -0.73510
O139        O  0.01336337  0.52237417  0.08966505    -0.62130
O140        O  0.01046046  0.52091200  0.93107994    -0.70540
O141        O  0.00761544  0.60842942  0.92898735    -0.70090
O142        O  0.01079747  0.60995519  0.08705443    -0.61350
O143        O  0.08739476  0.60982511  0.00764947    -0.73850
O144        O  0.92993068  0.60894627  0.00956071    -0.72630
Cu145      Cu  0.01108079  0.51863008  0.01081861     1.04560
Cu146      Cu  0.00867242  0.61227048  0.00805174     1.04330
C147        C  0.90556967  0.56534204  0.01242336     0.93670
C148        C  0.11360487  0.56642761  0.01055382     0.92810
C149        C  0.01389685  0.56652805  0.11324166     0.84950
C150        C  0.00998304  0.56449219  0.90496053     0.91230
C151        C  0.15164573  0.06587158  0.49204270     0.00260
C152        C  0.17642987  0.09058327  0.44912772    -0.11610
C153        C  0.23155096  0.09362946  0.44611813     0.02500
C154        C  0.26450913  0.06746197  0.48485396     0.00170
C155        C  0.23862991  0.03995112  0.52612975    -0.11550
C156        C  0.18360476  0.04137834  0.53150044     0.02380
H157        H  0.15236449  0.11048551  0.41894977     0.15360
H158        H  0.26071024  0.01819206  0.55614225     0.15360
C159        C  0.16170443  0.01928817  0.57939060     0.37010
C160        C  0.25126079  0.12752254  0.40454679     0.36920
N161        N  0.14507632  0.00298125  0.61882142    -0.43330
N162        N  0.26612633  0.15495401  0.37094695    -0.43330
C163        C  0.49311462  0.08761950  0.27427427     0.00260
C164        C  0.53937358  0.06709780  0.25068852    -0.11610
C165        C  0.54395969  0.06211581  0.19537840     0.02500
C166        C  0.50073094  0.07530044  0.16163238     0.00170
C167        C  0.45361791  0.09260052  0.18515979    -0.11550
C168        C  0.44957350  0.09976309  0.23999764     0.02380
H169        H  0.57292234  0.05541332  0.27512824     0.15360
H170        H  0.41988683  0.10304136  0.16022584     0.15360
C171        C  0.40064640  0.12271651  0.25839756     0.37010
C172        C  0.59397614  0.04413311  0.17473604     0.36920
N173        N  0.36106892  0.14074058  0.27263747    -0.43330
N174        N  0.63429339  0.03018740  0.15834246    -0.43330
C175        C  0.71592858  0.07582651  0.48466559     0.00260
C176        C  0.74087464  0.02767237  0.49899503    -0.11610
C177        C  0.79606388  0.02366186  0.50275459     0.02500
C178        C  0.82676301  0.06830032  0.49204704     0.00170
C179        C  0.80215633  0.11606799  0.47745406    -0.11550
C180        C  0.74730348  0.12046616  0.47437299     0.02380
H181        H  0.71725051  0.99335544  0.50749662     0.15360
H182        H  0.82598031  0.15042751  0.46952851     0.15360
C183        C  0.72441023  0.17216315  0.46385123     0.37010
C184        C  0.82046834  0.97345789  0.51674804     0.36920
N185        N  0.70617145  0.21365067  0.45564331    -0.43330
N186        N  0.84017633  0.93325832  0.52784553    -0.43330
C187        C  0.49612491  0.07387829  0.72100022     0.00260
C188        C  0.53427693  0.10428785  0.74677970    -0.11610
C189        C  0.53836730  0.10462873  0.80225000     0.02500
C190        C  0.50305674  0.07501349  0.83323428     0.00170
C191        C  0.46464945  0.04513577  0.80770199    -0.11550
C192        C  0.46136879  0.04361082  0.75237767     0.02380
H193        H  0.56077352  0.12839044  0.72363574     0.15360
H194        H  0.43773139  0.02174089  0.83117871     0.15360
C195        C  0.42337321  0.00870495  0.72924741     0.37010
C196        C  0.57793710  0.13709831  0.82626526     0.36920
N197        N  0.39280843  0.98076146  0.71090939    -0.43330
N198        N  0.60970726  0.16306154  0.84550271    -0.43330
C199        C  0.97882330  0.22944164  0.49808866     0.00260
C200        C  0.00634782  0.25569896  0.53790224    -0.11610
C201        C  0.00317932  0.31060384  0.54214092     0.02500
C202        C  0.97045657  0.34073383  0.50690130     0.00170
C203        C  0.94199152  0.31425757  0.46763854    -0.11550
C204        C  0.94600028  0.25919935  0.46288982     0.02380
H205        H  0.03186560  0.23328101  0.56496363     0.15360
H206        H  0.91686187  0.33668700  0.44027502     0.15360
C207        C  0.91486193  0.23415701  0.42259478     0.37010
C208        C  0.03693243  0.33495524  0.58081240     0.36920
N209        N  0.88985751  0.21404584  0.39035348    -0.43330
N210        N  0.06408463  0.35443574  0.61168551    -0.43330
C211        C  0.03487824  0.56742208  0.28203746     0.00260
C212        C  0.00074432  0.60447772  0.25684833    -0.11610
C213        C  0.99329252  0.60492757  0.20207816     0.02500
C214        C  0.01994062  0.56732736  0.17120681     0.00170
C215        C  0.05455314  0.53060881  0.19594907    -0.11550
C216        C  0.06260945  0.53065380  0.25089609     0.02380
H217        H  0.97806529  0.63215612  0.28028324     0.15360
H218        H  0.07601695  0.50231783  0.17215832     0.15360
C219        C  0.10047530  0.49368937  0.27386731     0.37010
C220        C  0.95600283  0.64262288  0.17907771     0.36920
N221        N  0.13086655  0.46395702  0.29211936    -0.43330
N222        N  0.92609896  0.67279446  0.16071419    -0.43330
C223        C  0.97416051  0.79368662  0.49980647     0.00260
C224        C  0.00660907  0.81930351  0.53625909    -0.11610
C225        C  0.01211307  0.87390069  0.53476805     0.02500
C226        C  0.98521648  0.90455072  0.49566422     0.00170
C227        C  0.95219673  0.87923317  0.45933331    -0.11550
C228        C  0.94604165  0.82427812  0.46144688     0.02380
H229        H  0.02932961  0.79628482  0.56526287     0.15360
H230        H  0.93012515  0.90255799  0.43010988     0.15360
C231        C  0.90922684  0.80063779  0.42537011     0.37010
C232        C  0.04723612  0.89678506  0.57297275     0.36920
N233        N  0.87958819  0.78167025  0.39655213    -0.43330
N234        N  0.07535937  0.91422391  0.60417972    -0.43330
C235        C  0.01291919  0.56869493  0.73427867     0.00260
C236        C  0.04365201  0.53085548  0.76228218    -0.11610
C237        C  0.04332067  0.52850104  0.81787004     0.02500
C238        C  0.01196307  0.56471276  0.84642211     0.00170
C239        C  0.98218153  0.60309700  0.81856584    -0.11550
C240        C  0.98173035  0.60502305  0.76324864     0.02380
H241        H  0.06791839  0.50298884  0.74073180     0.15360
H242        H  0.95774147  0.63083532  0.84017240     0.15360
C243        C  0.94623219  0.64282875  0.73765940     0.37010
C244        C  0.07674744  0.48968236  0.84454236     0.36920
N245        N  0.91780007  0.67317206  0.71729717    -0.43330
N246        N  0.10364174  0.45862064  0.86588888    -0.43330
C247        C  0.28287010  0.57445447  0.01840810     0.00260
C248        C  0.25663962  0.53555595  0.04785906    -0.11610
C249        C  0.20157406  0.53185144  0.04574038     0.02500
C250        C  0.17169283  0.56793136  0.01404010     0.00170
C251        C  0.19765495  0.60758302  0.98580613    -0.11550
C252        C  0.25255340  0.61075447  0.98699793     0.02380
H253        H  0.27922988  0.50764262  0.07223729     0.15360
H254        H  0.17498265  0.63529078  0.96119390     0.15360
C255        C  0.27643621  0.64961382  0.95267395     0.37010
C256        C  0.17677887  0.49150742  0.07743265     0.36920
N257        N  0.29540771  0.68076984  0.92512664    -0.43330
N258        N  0.15690845  0.45914284  0.10278598    -0.43330
C259        C  0.50656820  0.23574997  0.98811125     0.00260
C260        C  0.47703516  0.26077447  0.94737143    -0.11610
C261        C  0.47966551  0.31547265  0.93868276     0.02500
C262        C  0.51170665  0.34621557  0.97183379     0.00170
C263        C  0.54137855  0.32074674  0.01236324    -0.11550
C264        C  0.53921277  0.26619704  0.02059064     0.02380
H265        H  0.45276414  0.23732201  0.92148546     0.15360
H266        H  0.56508929  0.34383425  0.03909782     0.15360
C267        C  0.56881140  0.24280160  0.06434935     0.37010
C268        C  0.45058612  0.33856614  0.89451096     0.36920
N269        N  0.59233899  0.22408243  0.09953833    -0.43330
N270        N  0.42721263  0.35692581  0.85903905    -0.43330
C271        C  0.73623469  0.56801357  0.03063868     0.00260
C272        C  0.76090871  0.60528593  0.99769126    -0.11610
C273        C  0.81557233  0.60475373  0.99081838     0.02500
C274        C  0.84724746  0.56604691  0.01705686     0.00170
C275        C  0.82287807  0.52888311  0.05035563    -0.11550
C276        C  0.76796831  0.52982439  0.05769179     0.02380
H277        H  0.73712221  0.63410454  0.97557749     0.15360
H278        H  0.84693408  0.49968688  0.07162687     0.15360
C279        C  0.74558554  0.49246760  0.09452701     0.37010
C280        C  0.83767561  0.64294832  0.95455311     0.36920
N281        N  0.72763579  0.46250894  0.12406992    -0.43330
N282        N  0.85529178  0.67351704  0.92542915    -0.43330
C283        C  0.50372695  0.91128527  0.99013016     0.00260
C284        C  0.54566587  0.88621949  0.96369493    -0.11610
C285        C  0.54772645  0.83124051  0.95801285     0.02500
C286        C  0.50801195  0.79973692  0.98075019     0.00170
C287        C  0.46549733  0.82526819  0.00602174    -0.11550
C288        C  0.46258897  0.88013372  0.01017383     0.02380
H289        H  0.57663824  0.90980962  0.94645173     0.15360
H290        H  0.43480155  0.80217270  0.02438902     0.15360
C291        C  0.41764462  0.90284985  0.03691467     0.37010
C292        C  0.58989605  0.80898386  0.92691792     0.36920
N293        N  0.38137069  0.92084236  0.05806674    -0.43330
N294        N  0.62389296  0.79145909  0.90199188    -0.43330
loop_ 
_geom_bond_atom_site_label_1 
_geom_bond_atom_site_label_2 
_geom_bond_distance 
_geom_bond_site_symmetry_2 
_ccdc_geom_bond_type 
C1            C2   1.424       .  A
C1            C6   1.427       .  A
C1          C286   1.496       .  S
C2            C3   1.399   1_556  A
C2            H7   1.083       .  S
C3            C4   1.397       .  A
C3           C32   1.498   1_554  S
C4            C5   1.401       .  A
C4            H8   1.067       .  S
C5            C6   1.402   1_554  A
C5           C12   1.504       .  S
C6            H9   1.079       .  S
C10          C11   1.428       .  A
C10          C15   1.428       .  A
C10         C271   1.490       .  S
C11          C12   1.402       .  A
C11          H16   1.083       .  S
C12          C13   1.392   1_554  A
C13          C14   1.397       .  A
C13          H17   1.059       .  S
C14          C15   1.402   1_556  A
C14          C21   1.506       .  S
C15          H18   1.081       .  S
C19          C20   1.429       .  A
C19          C24   1.427       .  A
C19         C262   1.488       .  S
C20          C21   1.403       .  A
C20          H25   1.083       .  S
C21          C22   1.394   1_556  A
C22          C23   1.390   1_554  A
C22          H26   1.059       .  S
C23          C24   1.400       .  A
C23          C30   1.500       .  S
C24          H27   1.081       .  S
C28          C29   1.423       .  A
C28          C33   1.422       .  A
C28         C247   1.486       .  S
C29          C30   1.400   1_554  A
C29          H34   1.082       .  S
C30          C31   1.402       .  A
C31          C32   1.398       .  A
C31          H35   1.066       .  S
C32          C33   1.400   1_556  A
C33          H36   1.083       .  S
C37          C38   1.424       .  A
C37          C42   1.419       .  A
C37         C235   1.487       .  S
C38          C39   1.403   1_455  A
C38          H43   1.082       .  S
C39          C40   1.404       .  A
C39          C66   1.505       .  S
C40          C41   1.400       .  A
C40          H44   1.066       .  S
C41          C42   1.397   1_655  A
C41          C50   1.496       .  S
C42          H45   1.083       .  S
C46          C47   1.420       .  A
C46          C51   1.423       .  A
C46         C223   1.485       .  S
C47          C48   1.400   1_655  A
C47          H52   1.082       .  S
C48          C49   1.399       .  A
C48          C57   1.493       .  S
C49          C50   1.395   1_455  A
C49          H53   1.067       .  S
C50          C51   1.401       .  A
C51          H54   1.083       .  S
C55          C56   1.423       .  A
C55          C60   1.426       .  A
C55         C211   1.481       .  S
C56          C57   1.396       .  A
C56          H61   1.083       .  S
C57          C58   1.392   1_455  A
C58          C59   1.396       .  A
C58          H62   1.061       .  S
C59          C60   1.400   1_655  A
C59          C68   1.501   1_655  S
C60          H63   1.081       .  S
C64          C65   1.429       .  A
C64          C69   1.426       .  A
C64         C202   1.491       .  S
C65          C66   1.404       .  A
C65          H70   1.083       .  S
C66          C67   1.392   1_655  A
C67          C68   1.395       .  A
C67          H71   1.060       .  S
C68          C69   1.401   1_455  A
C69          H72   1.082       .  S
C73          C74   1.420       .  A
C73          C78   1.420       .  A
C73         C187   1.494       .  S
C74          C75   1.401       .  A
C74          H79   1.083       .  S
C75          C76   1.402       .  A
C75         C102   1.492       .  S
C76          C77   1.402       .  A
C76          H80   1.086       .  S
C77          C78   1.401       .  A
C77          C84   1.492       .  S
C78          H81   1.082       .  S
C82          C83   1.416       .  A
C82          C87   1.422       .  A
C82         C175   1.483       .  S
C83          C84   1.397       .  A
C83          H88   1.083       .  S
C84          C85   1.396       .  A
C85          C86   1.403       .  A
C85          H89   1.065       .  S
C86          C87   1.409       .  A
C86          C93   1.517       .  S
C87          H90   1.082       .  S
C91          C92   1.425       .  A
C91          C96   1.424       .  A
C91         C163   1.517       .  S
C92          C93   1.408       .  A
C92          H97   1.078       .  S
C93          C94   1.405       .  A
C94          C95   1.408       .  A
C94          H98   1.078       .  S
C95          C96   1.413       .  A
C95         C104   1.519       .  S
C96          H99   1.080       .  S
C100        C101   1.428       .  A
C100        C105   1.430       .  A
C100        C154   1.522       .  S
C101        C102   1.395       .  A
C101        H106   1.077       .  S
C102        C103   1.390       .  A
C103        C104   1.403       .  A
C103        H107   1.066       .  S
C104        C105   1.415       .  A
C105        H108   1.078       .  S
O109       Cu117   1.989   1_565  S
O109        C119   1.275       .  A
O110       Cu117   2.002       .  S
O110        C120   1.277       .  A
O111       Cu117   2.018       .  S
O111        C121   1.279       .  A
O112       Cu117   2.023   1_455  S
O112        C122   1.280       .  A
O113       Cu118   2.009   1_455  S
O113        C122   1.278       .  A
O114       Cu118   1.987       .  S
O114        C121   1.274       .  A
O115       Cu118   2.023       .  S
O115        C120   1.280       .  A
O116       Cu118   2.024   1_565  S
O116        C119   1.280       .  A
Cu117      Cu118   2.373       .  S
C119        C226   1.480       .  S
C120        C199   1.484       .  S
C121        C178   1.465       .  S
C122        C151   1.491       .  S
O123       Cu131   2.010   1_565  S
O123        C133   1.278       .  A
O124       Cu131   2.015       .  S
O124        C134   1.278       .  A
O125       Cu131   1.996       .  S
O125        C135   1.276       .  A
O126       Cu131   2.014   1_554  S
O126        C136   1.279       .  A
O127       Cu132   2.032   1_554  S
O127        C136   1.280       .  A
O128       Cu132   2.021       .  S
O128        C135   1.280       .  A
O129       Cu132   2.001       .  S
O129        C134   1.277       .  A
O130       Cu132   2.006   1_565  S
O130        C133   1.277       .  A
Cu131      Cu132   2.369       .  S
C133        C283   1.486       .  S
C134        C259   1.476       .  S
C135        C190   1.481       .  S
C136        C166   1.501       .  S
O137       Cu145   2.024   1_655  S
O137        C147   1.280       .  A
O138       Cu145   2.005       .  S
O138        C148   1.278       .  A
O139       Cu145   1.994       .  S
O139        C149   1.276       .  A
O140       Cu145   2.012   1_556  S
O140        C150   1.278       .  A
O141       Cu146   1.999   1_556  S
O141        C150   1.277       .  A
O142       Cu146   1.994       .  S
O142        C149   1.277       .  A
O143       Cu146   1.996       .  S
O143        C148   1.277       .  A
O144       Cu146   2.000   1_655  S
O144        C147   1.277       .  A
Cu145      Cu146   2.374       .  S
C147        C274   1.484       .  S
C148        C250   1.476       .  S
C149        C214   1.470       .  S
C150        C238   1.478       .  S
C151        C152   1.401       .  A
C151        C156   1.409       .  A
C152        C153   1.404       .  A
C152        H157   1.085       .  S
C153        C154   1.430       .  A
C153        C160   1.443       .  S
C154        C155   1.416       .  A
C155        C156   1.403       .  A
C155        H158   1.078       .  S
C156        C159   1.443       .  S
C159        N161   1.157       .  T
C160        N162   1.158       .  T
C163        C164   1.414       .  A
C163        C168   1.424       .  A
C164        C165   1.409       .  A
C164        H169   1.082       .  S
C165        C166   1.415       .  A
C165        C172   1.444       .  S
C166        C167   1.404       .  A
C167        C168   1.403       .  A
C167        H170   1.085       .  S
C168        C171   1.444       .  S
C171        N173   1.158       .  T
C172        N174   1.157       .  T
C175        C176   1.407       .  A
C175        C180   1.416       .  A
C176        C177   1.404       .  A
C176        H181   1.084   1_545  S
C177        C178   1.408       .  A
C177        C184   1.444   1_545  S
C178        C179   1.396       .  A
C179        C180   1.395       .  A
C179        H182   1.085       .  S
C180        C183   1.445       .  S
C183        N185   1.157       .  T
C184        N186   1.157       .  T
C187        C188   1.409       .  A
C187        C192   1.417       .  A
C188        C189   1.403       .  A
C188        H193   1.084       .  S
C189        C190   1.411       .  A
C189        C196   1.444       .  S
C190        C191   1.403       .  A
C191        C192   1.399       .  A
C191        H194   1.085       .  S
C192        C195   1.445       .  S
C195        N197   1.157   1_545  T
C196        N198   1.157       .  T
C199        C200   1.402   1_655  A
C199        C204   1.414       .  A
C200        C201   1.399       .  A
C200        H205   1.085       .  S
C201        C202   1.418   1_455  A
C201        C208   1.445       .  S
C202        C203   1.407       .  A
C203        C204   1.405       .  A
C203        H206   1.084       .  S
C204        C207   1.444       .  S
C207        N209   1.157       .  T
C208        N210   1.157       .  T
C211        C212   1.408       .  A
C211        C216   1.410       .  A
C212        C213   1.393   1_455  A
C212        H217   1.085   1_455  S
C213        C214   1.407   1_655  A
C213        C220   1.445       .  S
C214        C215   1.405       .  A
C215        C216   1.400       .  A
C215        H218   1.084       .  S
C216        C219   1.443       .  S
C219        N221   1.157       .  T
C220        N222   1.157       .  T
C223        C224   1.403   1_655  A
C223        C228   1.413       .  A
C224        C225   1.394       .  A
C224        H229   1.085       .  S
C225        C226   1.411   1_455  A
C225        C232   1.442       .  S
C226        C227   1.406       .  A
C227        C228   1.405       .  A
C227        H230   1.085       .  S
C228        C231   1.443       .  S
C231        N233   1.157       .  T
C232        N234   1.156       .  T
C235        C236   1.405       .  A
C235        C240   1.419   1_455  A
C236        C237   1.403       .  A
C236        H241   1.084       .  S
C237        C238   1.414       .  A
C237        C244   1.444       .  S
C238        C239   1.399   1_455  A
C239        C240   1.396       .  A
C239        H242   1.085       .  S
C240        C243   1.446       .  S
C243        N245   1.157       .  T
C244        N246   1.157       .  T
C247        C248   1.405       .  A
C247        C252   1.418   1_554  A
C248        C249   1.402       .  A
C248        H253   1.084       .  S
C249        C250   1.413       .  A
C249        C256   1.444       .  S
C250        C251   1.400   1_554  A
C251        C252   1.396       .  A
C251        H254   1.085       .  S
C252        C255   1.446       .  S
C255        N257   1.157       .  T
C256        N258   1.157       .  T
C259        C260   1.405       .  A
C259        C264   1.408   1_556  A
C260        C261   1.404       .  A
C260        H265   1.085       .  S
C261        C262   1.414       .  A
C261        C268   1.443       .  S
C262        C263   1.408   1_556  A
C263        C264   1.398       .  A
C263        H266   1.085       .  S
C264        C267   1.445       .  S
C267        N269   1.157       .  T
C268        N270   1.157       .  T
C271        C272   1.407   1_554  A
C271        C276   1.413       .  A
C272        C273   1.398       .  A
C272        H277   1.085       .  S
C273        C274   1.412   1_556  A
C273        C280   1.445       .  S
C274        C275   1.407       .  A
C275        C276   1.406       .  A
C275        H278   1.085       .  S
C276        C279   1.443       .  S
C279        N281   1.157       .  T
C280        N282   1.157       .  T
C283        C284   1.407       .  A
C283        C288   1.411   1_556  A
C284        C285   1.404       .  A
C284        H289   1.085       .  S
C285        C286   1.415       .  A
C285        C292   1.443       .  S
C286        C287   1.410   1_556  A
C287        C288   1.398       .  A
C287        H290   1.084       .  S
C288        C291   1.445       .  S
C291        N293   1.157       .  T
C292        N294   1.157       .  T
