geometry optimzed in LAMMPS
_audit_creation_date              2020-11-30 
_audit_creation_method            'lammps2cif' 
_symmetry_space_group_name_H-M    'P1' 
_symmetry_Int_Tables_number       1 
_symmetry_cell_setting            triclinic 
loop_ 
_symmetry_equiv_pos_as_xyz 
  x,y,z 
_cell_length_a                    38.9534654 
_cell_length_b                    31.17087307942542 
_cell_length_c                    33.028354108862395 
_cell_angle_alpha                 90.25806403594642 
_cell_angle_beta                  90.46148687535273 
_cell_angle_gamma                 87.8679483716618 
loop_ 
_atom_site_label 
_atom_site_type_symbol 
_atom_site_fract_x 
_atom_site_fract_y 
_atom_site_fract_z 
_atom_site_charge 
N1          N  0.82267775  0.88608845  0.42252079    -0.26200
N2          N  0.84203697  0.91265712  0.44296088    -0.34100
C3          C  0.85762755  0.93839334  0.41700945     0.02100
C4          C  0.84765815  0.92753319  0.37813692     0.08100
C5          C  0.82522867  0.89449995  0.38271281    -0.05000
H6          H  0.87569027  0.96229171  0.42590310     0.08800
H7          H  0.81323996  0.87634109  0.35882555     0.10000
Cu8        Cu  0.84899403  0.91060002  0.50473308     0.44200
Cu9        Cu  0.79769425  0.83679641  0.45061632     0.42000
Cu10       Cu  0.80755619  0.82956204  0.56170347     0.43900
N11         N  0.85381060  0.90465093  0.56654302    -0.33600
N12         N  0.83784885  0.87605187  0.58818772    -0.27900
C13         C  0.84609139  0.88165483  0.62752552    -0.04000
C14         C  0.86871972  0.91482948  0.63036702     0.08200
C15         C  0.87294101  0.92867286  0.59112203     0.02000
H16         H  0.83693382  0.86242024  0.65210123     0.09700
H17         H  0.88846550  0.95458469  0.58106610     0.08800
N18         N  0.78235899  0.78515762  0.52569718    -0.35100
N19         N  0.77911796  0.78787917  0.48583504    -0.27300
C20         C  0.76252576  0.75364428  0.47199374    -0.02500
C21         C  0.75482845  0.72813369  0.50455267     0.06100
C22         C  0.76772090  0.74906296  0.53814827     0.04200
H23         H  0.75652922  0.74783082  0.44045129     0.09300
H24         H  0.76675269  0.73872563  0.56932827     0.08200
N25         N  0.64760781  0.54920094  0.41548884    -0.26200
N26         N  0.62626772  0.52487092  0.43513928    -0.34100
C27         C  0.60720370  0.50356310  0.40819647     0.02100
C28         C  0.61698930  0.51495600  0.36956876     0.08100
C29         C  0.64278055  0.54378495  0.37538007    -0.05000
H30         H  0.58752930  0.48168410  0.41637259     0.08800
H31         H  0.65631993  0.56057733  0.35216590     0.10000
Cu32       Cu  0.62331665  0.52190453  0.49770902     0.44200
Cu33       Cu  0.68040825  0.59067002  0.44465779     0.42000
Cu34       Cu  0.68164173  0.58643685  0.55494891     0.43900
N35         N  0.62630262  0.52177298  0.56041742    -0.33600
N36         N  0.64848328  0.54423551  0.58139027    -0.27900
C37         C  0.64402258  0.53702365  0.62111586    -0.04000
C38         C  0.61749460  0.50915310  0.62535683     0.08200
C39         C  0.60688999  0.50005167  0.58620522     0.02000
H40         H  0.65827715  0.55209114  0.64520017     0.09700
H41         H  0.58654077  0.47933886  0.57700559     0.08800
N42         N  0.70776046  0.63089471  0.52143395    -0.35100
N43         N  0.70712481  0.63252885  0.48141014    -0.27300
C44         C  0.72437892  0.66674858  0.46935853    -0.02500
C45         C  0.73641280  0.68768400  0.50336718     0.06100
C46         C  0.72551397  0.66399955  0.53584986     0.04200
H47         H  0.72710472  0.67631444  0.43814004     0.09300
H48         H  0.72917738  0.67108028  0.56765411     0.08200
C49         C  0.90450269  0.99284409  0.23139787     0.81300
N50         N  0.88895822  0.98422103  0.26695381    -0.77000
C51         C  0.90826467  0.97304091  0.30003641     0.83700
N52         N  0.94307896  0.97171245  0.29770691    -0.77000
C53         C  0.95866711  0.97869854  0.26189555     0.83800
N54         N  0.93929667  0.98892697  0.22885147    -0.78700
C55         C  0.05092108  0.97784700  0.28916429     0.81300
N56         N  0.01618389  0.97895245  0.29229223    -0.77000
C57         C  0.99621662  0.97505031  0.25874745     0.83700
N58         N  0.01119509  0.96806456  0.22220901    -0.77000
C59         C  0.04591017  0.96373947  0.21937219     0.83800
N60         N  0.06579091  0.96958432  0.25277788    -0.78700
C61         C  0.92717420  0.99572596  0.76982006     0.81300
N62         N  0.96207283  0.99381403  0.77303993    -0.77000
C63         C  0.98160450  0.98107830  0.74095926     0.83700
N64         N  0.96608129  0.96932855  0.70583417    -0.77000
C65         C  0.93128935  0.96802507  0.70350020     0.83800
N66         N  0.91192233  0.98200301  0.73528777    -0.78700
C67         C  0.07037211  0.96448158  0.78089380     0.81300
N68         N  0.03541547  0.96682683  0.77873245    -0.77000
C69         C  0.01930754  0.98020348  0.74408583     0.83700
N70         N  0.03828591  0.99210831  0.71198448    -0.77000
C71         C  0.07312180  0.99236553  0.71497186     0.83800
N72         N  0.08900258  0.97814794  0.74927798    -0.78700
N73         N  0.32678569  0.53952933  0.91741156    -0.26200
N74         N  0.34887542  0.51325480  0.93654374    -0.34100
C75         C  0.36724214  0.49067289  0.90859908     0.02100
C76         C  0.35586537  0.50320978  0.87022785     0.08100
C77         C  0.33016304  0.53395932  0.87722500    -0.05000
H78         H  0.38750318  0.46719085  0.91573327     0.08800
H79         H  0.31578610  0.55227484  0.85461220     0.10000
Cu80       Cu  0.35261624  0.50969194  0.00012383     0.44200
Cu81       Cu  0.29480340  0.58539250  0.94525670     0.42000
Cu82       Cu  0.29287849  0.58296117  0.05272218     0.43900
N83         N  0.34694028  0.51181842  0.06349011    -0.33600
N84         N  0.32414778  0.53759130  0.08180729    -0.27900
C85         C  0.32653218  0.53193443  0.12206781    -0.04000
C86         C  0.35223070  0.50143352  0.13001043     0.08200
C87         C  0.36470257  0.48926285  0.09207473     0.02000
H88         H  0.31155028  0.55011655  0.14411870     0.09700
H89         H  0.38546075  0.46630073  0.08565765     0.08800
N90         N  0.26806585  0.63086475  0.01930826    -0.35100
N91         N  0.26866430  0.63204734  0.97935897    -0.27300
C92         C  0.25176377  0.66809196  0.96671365    -0.02500
C93         C  0.24011434  0.69062165  0.00047703     0.06100
C94         C  0.25089212  0.66601411  0.03325997     0.04200
H95         H  0.24877840  0.67754816  0.93537138     0.09300
H96         H  0.24706967  0.67339013  0.06497770     0.08200
N97         N  0.12715947  0.88172745  0.92640500    -0.26200
N98         N  0.10548586  0.90402539  0.94961791    -0.34100
C99         C  0.08345066  0.92727525  0.92638499     0.02100
C100        C  0.09180242  0.91995513  0.88648344     0.08100
C101        C  0.11972425  0.89089474  0.88737395    -0.05000
H102        H  0.06298577  0.94828822  0.93780950     0.08800
H103        H  0.13294056  0.87657194  0.86169424     0.10000
Cu104      Cu  0.10691385  0.90335066  0.01172630     0.44200
Cu105      Cu  0.16335029  0.83759659  0.95051066     0.42000
Cu106      Cu  0.16791093  0.83446699  0.06259835     0.43900
N107        N  0.11310807  0.90325391  0.07347906    -0.33600
N108        N  0.13607617  0.87868028  0.09289494    -0.27900
C109        C  0.13302083  0.88612156  0.13293841    -0.04000
C110        C  0.10662089  0.91651093  0.13866999     0.08200
C111        C  0.09472952  0.92675764  0.10025251     0.02000
H112        H  0.14805402  0.86961654  0.15617459     0.09700
H113        H  0.07405529  0.94926945  0.09210712     0.08800
N114        N  0.19248352  0.79028245  0.02421953    -0.35100
N115        N  0.19118505  0.79136921  0.98413960    -0.27300
C116        C  0.20844809  0.75648427  0.96944944    -0.02500
C117        C  0.22100175  0.73231392  0.00174767     0.09300
C118        C  0.21046272  0.75475226  0.03592353     0.04200
H119        H  0.21082007  0.74870961  0.93761666     0.09300
H120        H  0.21482624  0.74548822  0.06712315     0.08200
C121        C  0.55506329  0.46894263  0.70497292     0.81300
N122        N  0.52029129  0.46954000  0.70742752    -0.77000
C123        C  0.50474513  0.46203573  0.74321719     0.83700
N124        N  0.52425304  0.45267960  0.77652787    -0.77000
C125        C  0.55912658  0.45005616  0.77398170     0.83800
N126        N  0.57444643  0.45854119  0.73819784    -0.78700
C127        C  0.41310599  0.46357637  0.71241411     0.81300
N128        N  0.44789264  0.46412737  0.71098735    -0.77000
C129        C  0.46701254  0.46327842  0.74548320     0.83700
N130        N  0.45106889  0.46349123  0.78185931    -0.77000
C131        C  0.41622142  0.46576669  0.78396736     0.83800
N132        N  0.39711644  0.46503517  0.74907613    -0.78700
N133        N  0.14983387  0.05626438  0.40434653    -0.26200
N134        N  0.13299104  0.02759522  0.42483185    -0.34100
C135        C  0.11529156  0.00330564  0.39916329     0.02100
C136        C  0.12096202  0.01734212  0.36029768     0.08100
C137        C  0.14333048  0.05068997  0.36453950    -0.05000
H138        H  0.09818254  0.97873491  0.40852828     0.08800
H139        H  0.15220091  0.07124242  0.34078895     0.10000
Cu140      Cu  0.12943513  0.02634546  0.48656569     0.44200
Cu141      Cu  0.17603051  0.10470697  0.43362420     0.42000
Cu142      Cu  0.16959094  0.10492727  0.54623184     0.43900
N143        N  0.12271284  0.03124075  0.54780784    -0.33600
N144        N  0.13835127  0.05925251  0.57092156    -0.27900
C145        C  0.12759691  0.05484606  0.60930802    -0.04000
C146        C  0.10372785  0.02287705  0.60970577     0.08200
C147        C  0.10120225  0.00887902  0.57027223     0.02000
H148        H  0.13523491  0.07476016  0.63448344     0.09700
H149        H  0.08453021  0.98466394  0.55855916     0.08800
N150        N  0.19348933  0.15108872  0.51215227    -0.35100
N151        N  0.19556510  0.15127162  0.47212007    -0.27300
C152        C  0.21094724  0.18714539  0.46058812    -0.02500
C153        C  0.21888649  0.21059762  0.49485794     0.06100
C154        C  0.20755324  0.18675499  0.52694857     0.04200
H155        H  0.21555205  0.19575939  0.42945965     0.09300
H156        H  0.20877733  0.19507738  0.55874693     0.08200
N157        N  0.31639976  0.40025688  0.41775546    -0.26200
N158        N  0.33826539  0.42448733  0.43733897    -0.34100
C159        C  0.35749025  0.44447493  0.40989466     0.02100
C160        C  0.34700398  0.43224721  0.37127678     0.08100
C161        C  0.32081036  0.40445474  0.37763964    -0.05000
H162        H  0.37799946  0.46557386  0.41758295     0.08800
H163        H  0.30706895  0.38683850  0.35475856     0.10000
Cu164      Cu  0.34136600  0.42702846  0.50081683     0.44200
Cu165      Cu  0.28465056  0.35800826  0.44592322     0.42000
Cu166      Cu  0.28510470  0.35539234  0.55486160     0.43900
N167        N  0.33821816  0.42345732  0.56417117    -0.33600
N168        N  0.31707759  0.39842266  0.58344373    -0.27900
C169        C  0.32201058  0.40274495  0.62364309    -0.04000
C170        C  0.34770453  0.43145385  0.63031334     0.08200
C171        C  0.35733496  0.44405364  0.59181864     0.02000
H172        H  0.30893162  0.38471642  0.64638344     0.09700
H173        H  0.37727417  0.46582203  0.58428553     0.08800
N174        N  0.26068011  0.31050715  0.51898354    -0.35100
N175        N  0.26074033  0.31163554  0.47898177    -0.27300
C176        C  0.24545120  0.27677343  0.46435884    -0.02500
C177        C  0.23523007  0.25244588  0.49668715     0.06100
C178        C  0.24516978  0.27483563  0.53089932     0.04200
H179        H  0.24285986  0.26917093  0.43251563     0.09300
H180        H  0.24235947  0.26524947  0.56210080     0.08200
N181        N  0.85921381  0.07196997  0.91257201    -0.26200
N182        N  0.88108608  0.05048894  0.93637322    -0.34100
C183        C  0.90471719  0.02926764  0.91399108     0.02100
C184        C  0.89742232  0.03704047  0.87386503     0.08100
C185        C  0.86830924  0.06431794  0.87373772    -0.05000
H186        H  0.92558149  0.00924626  0.92616375     0.08800
H187        H  0.85529105  0.07824786  0.84761406     0.10000
Cu188      Cu  0.87790842  0.04883570  0.99803483     0.44200
Cu189      Cu  0.81977904  0.11137803  0.93708229     0.42000
Cu190      Cu  0.81094298  0.10282099  0.05026355     0.43900
N191        N  0.87189456  0.04327078  0.05913329    -0.33600
N192        N  0.84659959  0.06219154  0.07961349    -0.27900
C193        C  0.85075489  0.05245738  0.11918190    -0.04000
C194        C  0.88026187  0.02628616  0.12307386     0.08200
C195        C  0.89285742  0.02134061  0.08450334     0.02000
H196        H  0.83447753  0.06488132  0.14323107     0.09700
H197        H  0.91608039  0.00379871  0.07554050     0.08800
N198        N  0.78354441  0.14592171  0.01302411    -0.35100
N199        N  0.78634614  0.14920127  0.97316228    -0.27300
C200        C  0.76571144  0.18222860  0.96040477    -0.02500
C201        C  0.74945616  0.20063722  0.99371012     0.06100
C202        C  0.76134556  0.17675764  0.02640743     0.04200
H203        H  0.76350547  0.19283051  0.92931773     0.09300
H204        H  0.75488795  0.18189341  0.05789753     0.08200
N205        N  0.62472660  0.38324238  0.92199337    -0.26200
N206        N  0.60560819  0.40908260  0.94519512    -0.34100
C207        C  0.58322636  0.43184841  0.92185007     0.02100
C208        C  0.58874667  0.42042518  0.88195241     0.08100
C209        C  0.61526648  0.38947015  0.88304110    -0.05000
H210        H  0.56418744  0.45495534  0.93316320     0.08800
H211        H  0.62604301  0.37170870  0.85765146     0.10000
Cu212      Cu  0.61027981  0.41268800  0.00760334     0.44200
Cu213      Cu  0.66076206  0.33844410  0.94528143     0.42000
Cu214      Cu  0.66905708  0.33786563  0.05593493     0.43900
N215        N  0.61884983  0.41173627  0.06954990    -0.33600
N216        N  0.64066258  0.38443913  0.08761569    -0.27900
C217        C  0.63898526  0.39067427  0.12794509    -0.04000
C218        C  0.61472734  0.42321823  0.13559650     0.08200
C219        C  0.60261475  0.43594370  0.09774737     0.02000
H220        H  0.65313277  0.37152058  0.15014003     0.09700
H221        H  0.58274405  0.46006214  0.09100816     0.08800
N222        N  0.69374424  0.29367910  0.01776123    -0.35100
N223        N  0.69144665  0.29408662  0.97775315    -0.27300
C224        C  0.71095262  0.26112898  0.96284425    -0.02500
C225        C  0.72599192  0.23888573  0.99501430     0.06100
C226        C  0.71446313  0.26042001  0.02928285     0.04200
H227        H  0.71368868  0.25369052  0.93098288     0.09300
H228        H  0.72079191  0.25267727  0.06041953     0.08200
C229        C  0.41217589  0.46415223  0.21710094     0.81300
N230        N  0.39413251  0.46315459  0.25237615    -0.77000
C231        C  0.41131129  0.46188394  0.28866412     0.83700
N232        N  0.44613914  0.46319358  0.28932227    -0.77000
C233        C  0.46403700  0.46350465  0.25430347     0.83800
N234        N  0.44695180  0.46315730  0.21845597    -0.78700
C235        C  0.55363945  0.46370268  0.21879579     0.81300
N236        N  0.51891513  0.46270407  0.21929467    -0.77000
C237        C  0.50162894  0.46517614  0.25467933     0.83700
N238        N  0.51924281  0.47019707  0.28985133    -0.77000
C239        C  0.55392065  0.47359220  0.28961450     0.83800
N240        N  0.57130128  0.46957813  0.25402746    -0.78700
C241        C  0.60166155  0.43677749  0.17582886    -0.15400
C242        C  0.57094069  0.45728186  0.17966555    -0.30600
H243        H  0.61579242  0.42608056  0.20265423     0.13600
H244        H  0.55570353  0.46491977  0.15282409     0.14200
C245        C  0.36195610  0.44221490  0.33132970    -0.15400
C246        C  0.39345316  0.45783669  0.32782620    -0.30600
H247        H  0.34789821  0.43313984  0.30426682     0.13600
H248        H  0.40824398  0.46431981  0.35503520     0.14200
C249        C  0.39404631  0.45969706  0.67361973    -0.15400
C250        C  0.36323896  0.44190021  0.67028699    -0.30600
H251        H  0.40773820  0.46764921  0.64631843     0.13600
H252        H  0.35042818  0.43134438  0.69738080     0.14200
C253        C  0.58035116  0.43524463  0.80888421    -0.15400
C254        C  0.56829303  0.43626374  0.84687848    -0.30600
H255        H  0.60659307  0.42388337  0.80327580     0.13600
H256        H  0.54287370  0.45032090  0.85280040     0.14200
C257        C  0.36493267  0.48909713  0.17101069    -0.15400
C258        C  0.39548151  0.46873093  0.17687614    -0.30600
H259        H  0.35031998  0.50065735  0.19700046     0.13600
H260        H  0.41100625  0.45976504  0.15080599     0.14200
C261        C  0.40030769  0.47162389  0.82436826    -0.15400
C262        C  0.36906065  0.49039683  0.82969040    -0.30600
H263        H  0.41636699  0.46436797  0.85066787     0.13600
H264        H  0.35388655  0.50028726  0.80337520     0.14200
C265        C  0.08270142  0.00833687  0.64339298    -0.15400
C266        C  0.09391821  0.00871232  0.68178499    -0.30600
H267        H  0.05820030  0.99452013  0.63603986     0.13600
H268        H  0.11961104  0.01918865  0.68874251     0.14200
C269        C  0.08858051  0.94458583  0.81578533    -0.15400
C270        C  0.07326882  0.93886148  0.85140374    -0.30600
H271        H  0.11563537  0.93561587  0.81240793     0.13600
H272        H  0.04690788  0.95048900  0.85576639     0.14200
C273        C  0.90567238  0.01425852  0.80264500    -0.15400
C274        C  0.91832547  0.02005689  0.84001424    -0.30600
H275        H  0.87875512  0.02205569  0.79629026     0.13600
H276        H  0.94464700  0.00961776  0.84690639     0.14200
C277        C  0.07174151  0.98688870  0.32522148    -0.15400
C278        C  0.10274495  0.00430520  0.32317000    -0.30600
H279        H  0.05971671  0.98255906  0.35438435     0.13600
H280        H  0.11353709  0.01214657  0.29401223     0.14200
C281        C  0.09287490  0.93231836  0.17768807    -0.15400
C282        C  0.06130336  0.95102317  0.18039283    -0.30600
H283        H  0.10814754  0.92622132  0.20486372     0.13600
H284        H  0.04515397  0.95444150  0.15357849     0.14200
C285        C  0.88393674  0.00813959  0.19620776    -0.15400
C286        C  0.89819477  0.00988839  0.15946659    -0.30600
H287        H  0.85714694  0.01790734  0.20043919     0.13600
H288        H  0.92454336  0.99808680  0.15531537     0.14200
C289        C  0.57102034  0.48009854  0.66621124    -0.15400
C290        C  0.60302999  0.49450431  0.66394058    -0.30600
H291        H  0.55501025  0.47928972  0.63916836     0.13600
H292        H  0.61821144  0.49827803  0.69137580     0.14200
C293        C  0.60202911  0.50170610  0.33030689    -0.15400
C294        C  0.57154284  0.48298254  0.32815490    -0.30600
H295        H  0.61524430  0.50989729  0.30271435     0.13600
H296        H  0.55739676  0.47737665  0.35569111     0.14200
C297        C  0.88473318  0.93182443  0.66747007    -0.15400
C298        C  0.91490642  0.95142449  0.66654530    -0.30600
H299        H  0.87219884  0.92661340  0.69620811     0.13600
H300        H  0.92887809  0.95328639  0.63831575     0.14200
C301        C  0.89220666  0.96103108  0.33826816    -0.15400
C302        C  0.86115104  0.94377914  0.33975573    -0.30600
H303        H  0.90782065  0.96291988  0.36555916     0.13600
H304        H  0.84670231  0.93840719  0.31203679     0.14200
loop_ 
_geom_bond_atom_site_label_1 
_geom_bond_atom_site_label_2 
_geom_bond_distance 
_geom_bond_site_symmetry_2 
_ccdc_geom_bond_type 
N1            N2   1.320       .  A
N1            C5   1.347       .  A
N1           Cu9   2.075       .  S
N2            C3   1.341       .  A
N2           Cu8   2.057       .  S
C3            C4   1.383       .  A
C3            H6   1.082       .  S
C4            C5   1.385       .  A
C4          C302   1.475       .  S
C5            H7   1.082       .  S
Cu8          N11   2.057       .  S
Cu9          N19   2.077       .  S
Cu10         N12   2.087       .  S
Cu10         N18   2.088       .  S
N11          N12   1.322       .  A
N11          C15   1.342       .  A
N12          C13   1.348       .  A
C13          C14   1.386       .  A
C13          H16   1.082       .  S
C14          C15   1.381       .  A
C14         C297   1.476       .  S
C15          H17   1.082       .  S
N18          N19   1.324       .  A
N18          C22   1.348       .  A
N19          C20   1.344       .  A
C20          C21   1.382       .  A
C20          H23   1.082       .  S
C21          C22   1.385       .  A
C21          C45   1.474       .  S
C22          H24   1.082       .  S
N25          N26   1.322       .  A
N25          C29   1.347       .  A
N25         Cu33   2.079       .  S
N26          C27   1.344       .  A
N26         Cu32   2.073       .  S
C27          C28   1.386       .  A
C27          H30   1.081       .  S
C28          C29   1.384       .  A
C28         C293   1.481       .  S
C29          H31   1.082       .  S
Cu32         N35   2.073       .  S
Cu33         N43   2.080       .  S
Cu34         N36   2.078       .  S
Cu34         N42   2.078       .  S
N35          N36   1.322       .  A
N35          C39   1.345       .  A
N36          C37   1.346       .  A
C37          C38   1.383       .  A
C37          H40   1.082       .  S
C38          C39   1.386       .  A
C38         C290   1.478       .  S
C39          H41   1.082       .  S
N42          N43   1.323       .  A
N42          C46   1.347       .  A
N43          C44   1.345       .  A
C44          C45   1.384       .  A
C44          H47   1.082       .  S
C45          C46   1.384       .  A
C46          H48   1.082       .  S
C49          N50   1.358       .  A
C49          N54   1.360       .  A
C49         C285   1.477   1_565  S
N50          C51   1.361       .  A
C51          N52   1.358       .  A
C51         C301   1.470       .  S
N52          C53   1.356       .  A
C53          N54   1.354       .  A
C53          C57   1.467       .  S
C55          N56   1.357       .  A
C55          N60   1.358       .  A
C55         C277   1.468       .  S
N56          C57   1.356   1_455  A
C57          N58   1.358   1_655  A
N58          C59   1.358       .  A
C59          N60   1.358       .  A
C59         C282   1.471       .  S
C61          N62   1.362       .  A
C61          N66   1.357       .  A
C61         C273   1.478   1_565  S
N62          C63   1.359       .  A
C63          N64   1.359       .  A
C63          C69   1.471   1_655  S
N64          C65   1.359       .  A
C65          N66   1.358       .  A
C65         C298   1.473       .  S
C67          N68   1.362       .  A
C67          N72   1.356       .  A
C67         C269   1.475       .  S
N68          C69   1.360       .  A
C69          N70   1.358       .  A
N70          C71   1.360       .  A
C71          N72   1.355       .  A
C71         C266   1.472   1_565  S
N73          N74   1.324       .  A
N73          C77   1.345       .  A
N73         Cu81   2.077       .  S
N74          C75   1.351       .  A
N74         Cu80   2.107   1_556  S
C75          C76   1.392       .  A
C75          H78   1.082       .  S
C76          C77   1.380       .  A
C76         C262   1.486       .  S
C77          H79   1.082       .  S
Cu80         N83   2.107       .  S
Cu81         N91   2.077       .  S
Cu82         N84   2.067       .  S
Cu82         N90   2.067       .  S
N83          N84   1.323       .  A
N83          C87   1.350       .  A
N84          C85   1.344       .  A
C85          C86   1.379       .  A
C85          H88   1.082       .  S
C86          C87   1.393       .  A
C86         C257   1.485       .  S
C87          H89   1.081       .  S
N90          N91   1.321   1_554  A
N90          C94   1.344       .  A
N91          C92   1.347       .  A
C92          C93   1.386   1_556  A
C92          H95   1.082       .  S
C93          C94   1.383       .  A
C93         C117   1.474       .  S
C94          H96   1.082       .  S
N97          N98   1.321       .  A
N97         C101   1.349       .  A
N97        Cu105   2.088       .  S
N98          C99   1.341       .  A
N98        Cu104   2.052   1_556  S
C99         C100   1.376       .  A
C99         H102   1.082       .  S
C100        C101   1.390       .  A
C100        C270   1.474       .  S
C101        H103   1.082       .  S
Cu104       N107   2.052       .  S
Cu105       N115   2.089       .  S
Cu106       N108   2.078       .  S
Cu106       N114   2.080       .  S
N107        N108   1.320       .  A
N107        C111   1.340       .  A
N108        C109   1.347       .  A
C109        C110   1.386       .  A
C109        H112   1.082       .  S
C110        C111   1.382       .  A
C110        C281   1.475       .  S
C111        H113   1.081       .  S
N114        N115   1.325   1_554  A
N114        C118   1.345       .  A
N115        C116   1.348       .  A
C116        C117   1.384   1_556  A
C116        H119   1.082       .  S
C117        C118   1.382       .  A
C118        H120   1.082       .  S
C121        N122   1.357       .  A
C121        N126   1.361       .  A
C121        C289   1.476       .  S
N122        C123   1.358       .  A
C123        N124   1.359       .  A
C123        C129   1.471       .  S
N124        C125   1.361       .  A
C125        N126   1.360       .  A
C125        C253   1.479       .  S
C127        N128   1.357       .  A
C127        N132   1.366       .  A
C127        C249   1.482       .  S
N128        C129   1.356       .  A
C129        N130   1.357       .  A
N130        C131   1.359       .  A
C131        N132   1.367       .  A
C131        C261   1.484       .  S
N133        N134   1.320       .  A
N133        C137   1.349       .  A
N133       Cu141   2.084       .  S
N134        C135   1.338       .  A
N134       Cu140   2.045       .  S
C135        C136   1.380       .  A
C135        H138   1.082   1_545  S
C136        C137   1.387       .  A
C136        C278   1.475       .  S
C137        H139   1.082       .  S
Cu140       N143   2.046       .  S
Cu141       N151   2.086       .  S
Cu142       N144   2.080       .  S
Cu142       N150   2.082       .  S
N143        N144   1.320       .  A
N143        C147   1.340       .  A
N144        C145   1.348       .  A
C145        C146   1.388       .  A
C145        H148   1.082       .  S
C146        C147   1.376       .  A
C146        C265   1.470       .  S
C147        H149   1.082   1_545  S
N150        N151   1.325       .  A
N150        C154   1.346       .  A
N151        C152   1.346       .  A
C152        C153   1.384       .  A
C152        H155   1.082       .  S
C153        C154   1.382       .  A
C153        C177   1.473       .  S
C154        H156   1.082       .  S
N157        N158   1.322       .  A
N157        C161   1.345       .  A
N157       Cu165   2.069       .  S
N158        C159   1.350       .  A
N158       Cu164   2.100       .  S
C159        C160   1.392       .  A
C159        H162   1.081       .  S
C160        C161   1.381       .  A
C160        C245   1.485       .  S
C161        H163   1.082       .  S
Cu164       N167   2.101       .  S
Cu165       N175   2.069       .  S
Cu166       N168   2.082       .  S
Cu166       N174   2.082       .  S
N167        N168   1.324       .  A
N167        C171   1.349       .  A
N168        C169   1.347       .  A
C169        C170   1.383       .  A
C169        H172   1.082       .  S
C170        C171   1.391       .  A
C170        C250   1.488       .  S
C171        H173   1.081       .  S
N174        N175   1.322       .  A
N174        C178   1.347       .  A
N175        C176   1.344       .  A
C176        C177   1.382       .  A
C176        H179   1.082       .  S
C177        C178   1.386       .  A
C178        H180   1.082       .  S
N181        N182   1.321       .  A
N181        C185   1.351       .  A
N181       Cu189   2.096       .  S
N182        C183   1.339       .  A
N182       Cu188   2.042       .  S
C183        C184   1.374       .  A
C183        H186   1.082       .  S
C184        C185   1.392       .  A
C184        C274   1.473       .  S
C185        H187   1.082       .  S
Cu188       N191   2.042   1_556  S
Cu189       N199   2.099       .  S
Cu190       N192   2.081       .  S
Cu190       N198   2.084       .  S
N191        N192   1.319       .  A
N191        C195   1.337       .  A
N192        C193   1.350       .  A
C193        C194   1.390       .  A
C193        H196   1.082       .  S
C194        C195   1.375       .  A
C194        C286   1.470       .  S
C195        H197   1.082       .  S
N198        N199   1.327   1_554  A
N198        C202   1.344       .  A
N199        C200   1.349       .  A
C200        C201   1.385       .  A
C200        H203   1.082       .  S
C201        C202   1.381   1_556  A
C201        C225   1.476       .  S
C202        H204   1.082       .  S
N205        N206   1.323       .  A
N205        C209   1.348       .  A
N205       Cu213   2.088       .  S
N206        C207   1.344       .  A
N206       Cu212   2.071   1_556  S
C207        C208   1.380       .  A
C207        H210   1.082       .  S
C208        C209   1.387       .  A
C208        C254   1.477       .  S
C209        H211   1.082       .  S
Cu212       N215   2.071       .  S
Cu213       N223   2.088       .  S
Cu214       N216   2.076       .  S
Cu214       N222   2.078       .  S
N215        N216   1.321       .  A
N215        C219   1.343       .  A
N216        C217   1.347       .  A
C217        C218   1.384       .  A
C217        H220   1.082       .  S
C218        C219   1.387       .  A
C218        C241   1.481       .  S
C219        H221   1.081       .  S
N222        N223   1.324   1_554  A
N222        C226   1.344       .  A
N223        C224   1.349       .  A
C224        C225   1.385       .  A
C224        H227   1.082       .  S
C225        C226   1.383   1_556  A
C226        H228   1.082       .  S
C229        N230   1.367       .  A
C229        N234   1.354       .  A
C229        C258   1.480       .  S
N230        C231   1.368       .  A
C231        N232   1.359       .  A
C231        C246   1.482       .  S
N232        C233   1.356       .  A
C233        N234   1.354       .  A
C233        C237   1.467       .  S
C235        N236   1.354       .  A
C235        N240   1.362       .  A
C235        C242   1.472       .  S
N236        C237   1.354       .  A
C237        N238   1.356       .  A
N238        C239   1.359       .  A
C239        N240   1.364       .  A
C239        C294   1.475       .  S
C241        C242   1.342       .  D
C241        H243   1.086       .  S
C242        H244   1.085       .  S
C245        C246   1.343       .  D
C245        H247   1.086       .  S
C246        H248   1.086       .  S
C249        C250   1.344       .  D
C249        H251   1.086       .  S
C250        H252   1.086       .  S
C253        C254   1.343       .  D
C253        H255   1.086       .  S
C254        H256   1.087       .  S
C257        C258   1.341       .  D
C257        H259   1.087       .  S
C258        H260   1.086       .  S
C261        C262   1.343       .  D
C261        H263   1.086       .  S
C262        H264   1.086       .  S
C265        C266   1.338       .  D
C265        H267   1.087   1_545  S
C266        H268   1.087       .  S
C269        C270   1.339       .  D
C269        H271   1.087       .  S
C270        H272   1.087       .  S
C273        C274   1.339       .  D
C273        H275   1.086       .  S
C274        H276   1.087       .  S
C277        C278   1.345   1_565  D
C277        H279   1.086       .  S
C278        H280   1.086       .  S
C281        C282   1.345       .  D
C281        H283   1.086       .  S
C282        H284   1.086       .  S
C285        C286   1.341       .  D
C285        H287   1.086       .  S
C286        H288   1.087   1_545  S
C289        C290   1.344       .  D
C289        H291   1.086       .  S
C290        H292   1.086       .  S
C293        C294   1.344       .  D
C293        H295   1.086       .  S
C294        H296   1.085       .  S
C297        C298   1.345       .  D
C297        H299   1.086       .  S
C298        H300   1.086       .  S
C301        C302   1.343       .  D
C301        H303   1.086       .  S
C302        H304   1.086       .  S
