geometry optimzed in LAMMPS
_audit_creation_date              2020-11-30 
_audit_creation_method            'lammps2cif' 
_symmetry_space_group_name_H-M    'P1' 
_symmetry_Int_Tables_number       1 
_symmetry_cell_setting            triclinic 
loop_ 
_symmetry_equiv_pos_as_xyz 
  x,y,z 
_cell_length_a                    39.32045237 
_cell_length_b                    39.40227639762684 
_cell_length_c                    26.649136406840054 
_cell_angle_alpha                 89.4039384832993 
_cell_angle_beta                  90.15725096932863 
_cell_angle_gamma                 88.24629630038676 
loop_ 
_atom_site_label 
_atom_site_type_symbol 
_atom_site_fract_x 
_atom_site_fract_y 
_atom_site_fract_z 
_atom_site_charge 
N1          N  0.47669908  0.00848238  0.68327189    -0.26000
N2          N  0.44775071  0.00567863  0.65856995    -0.33800
C3          C  0.45448813  0.00369452  0.60917991     0.02400
C4          C  0.48932886  0.00569771  0.60266138     0.08400
C5          C  0.50254126  0.00876693  0.65044910    -0.04700
H6          H  0.43542348  0.00123537  0.58022031     0.09000
H7          H  0.52907451  0.01015239  0.66081089     0.10200
Cu8        Cu  0.40063533  0.00509726  0.69369461     0.44200
Cu9        Cu  0.48028606  0.00984477  0.76043768     0.42000
Cu10       Cu  0.40145277  0.00725455  0.82979622     0.43900
N11         N  0.35706302  0.00567041  0.73774057    -0.33400
N12         N  0.35736309  0.00597385  0.78729186    -0.27600
C13         C  0.32519027  0.00506200  0.80414356    -0.03700
C14         C  0.30331311  0.00429554  0.76321880     0.08500
C15         C  0.32466038  0.00491155  0.72175424     0.02300
H16         H  0.31851224  0.00414297  0.84344030     0.09900
H17         H  0.31742060  0.00503471  0.68260606     0.09000
N18         N  0.44905460  0.00754854  0.86313105    -0.34800
N19         N  0.47781422  0.00832241  0.83771986    -0.27000
C20         C  0.50408595  0.00722480  0.87006880    -0.02200
C21         C  0.49127375  0.00575387  0.91835648     0.06400
C22         C  0.45623743  0.00606586  0.91242481     0.04500
H23         H  0.53052185  0.00667441  0.85899259     0.09600
H24         H  0.43723773  0.00540386  0.94163937     0.08400
N25         N  0.58051483  0.99260664  0.18485041    -0.26000
N26         N  0.60943439  0.99286232  0.15982416    -0.33800
C27         C  0.60257688  0.99492133  0.11042815     0.02400
C28         C  0.56755952  0.99605919  0.10411277     0.08400
C29         C  0.55445219  0.99456914  0.15221918    -0.04700
H30         H  0.62173612  0.99534066  0.08141589     0.09000
H31         H  0.52795190  0.99560597  0.16299131     0.10200
Cu32       Cu  0.65654040  0.99186307  0.19456710     0.44200
Cu33       Cu  0.57770482  0.99081096  0.26207234     0.42000
Cu34       Cu  0.65668167  0.99762490  0.33083123     0.43900
N35         N  0.70015050  0.99403840  0.23785448    -0.33400
N36         N  0.70042321  0.99660858  0.28727447    -0.27600
C37         C  0.73289587  0.99761190  0.30317702    -0.03700
C38         C  0.75405604  0.99541796  0.26174870     0.08500
C39         C  0.73231349  0.99325840  0.22103784     0.02300
H40         H  0.74048706  0.99899673  0.34212695     0.09900
H41         H  0.73924611  0.99152504  0.18187634     0.09000
N42         N  0.60917882  0.99620139  0.36456591    -0.34800
N43         N  0.58055988  0.99276794  0.33925591    -0.27000
C44         C  0.55436153  0.99253527  0.37147038    -0.02200
C45         C  0.56700246  0.99625681  0.41947467     0.06400
C46         C  0.60187444  0.99854646  0.41371857     0.04500
H47         H  0.52797385  0.99084051  0.36050622     0.09600
H48         H  0.62058359  0.00157230  0.44302608     0.08400
C49         C  0.02208332  0.85997674  0.99108735     0.81500
N50         N  0.03473494  0.87924549  0.95333477    -0.76800
C51         C  0.03651182  0.91344041  0.95773754     0.84000
N52         N  0.02503016  0.92867293  0.00013662    -0.76700
C53         C  0.01119455  0.91002386  0.03761498     0.84100
N54         N  0.01004137  0.87571523  0.03292357    -0.78400
C55         C  0.90171437  0.99213846  0.25421165     0.81500
N56         N  0.92104032  0.00509671  0.29136994    -0.76800
C57         C  0.95553039  0.00526717  0.28720648     0.84000
N58         N  0.97083403  0.99218018  0.24567648    -0.76700
C59         C  0.95181261  0.97793962  0.20933172     0.84100
N60         N  0.91748011  0.97832582  0.21373570    -0.78400
C61         C  0.03964492  0.11636830  0.48955547     0.81500
N62         N  0.03036664  0.09846987  0.44872466    -0.76800
C63         C  0.02890442  0.06411442  0.45055698     0.84000
N64         N  0.03813633  0.04722303  0.49345431    -0.76700
C65         C  0.04795541  0.06475610  0.53441671     0.84100
N66         N  0.04814469  0.09920596  0.53247405    -0.78400
C67         C  0.15615788  0.99789287  0.76108671     0.81500
N68         N  0.13800416  0.98762030  0.80152818    -0.76800
C69         C  0.10360796  0.98520828  0.79828918     0.84000
N70         N  0.08728983  0.99482959  0.75512551    -0.76700
C71         C  0.10525757  0.00562800  0.71488029     0.84100
N72         N  0.13965528  0.00642646  0.71778093    -0.78400
N73         N  0.01753766  0.43913674  0.55028790    -0.26000
N74         N  0.01532864  0.41104158  0.57744777    -0.33800
C75         C  0.01309488  0.41939646  0.62615801     0.02400
C76         C  0.01401629  0.45445693  0.62985814     0.08400
C77         C  0.01668793  0.46603840  0.58083828    -0.04700
H78         H  0.01238631  0.40112967  0.65667392     0.09000
H79         H  0.01837989  0.49205932  0.56805657     0.10200
Cu80       Cu  0.01800015  0.36253167  0.54750225     0.44200
Cu81       Cu  0.02432240  0.44024647  0.47346648     0.42000
Cu82       Cu  0.03271120  0.35987820  0.41291303     0.43900
N83         N  0.02447010  0.31787548  0.50730795    -0.33400
N84         N  0.02990473  0.31725200  0.45840162    -0.27600
C85         C  0.03383170  0.28489204  0.44373751    -0.03700
C86         C  0.03072458  0.26388099  0.48530836     0.08500
C87         C  0.02480581  0.28574795  0.52504982     0.02300
H88         H  0.03931107  0.27738177  0.40561520     0.09900
H89         H  0.02078156  0.27890809  0.56394629     0.09000
N90         N  0.03538721  0.40566805  0.37481078    -0.34800
N91         N  0.03256543  0.43529064  0.39735623    -0.27000
C92         C  0.03511933  0.46022811  0.36297753    -0.02200
C93         C  0.03967624  0.44561695  0.31634609     0.06400
C94         C  0.03967318  0.41091321  0.32532906     0.04500
H95         H  0.03278801  0.48701627  0.37124627     0.09600
H96         H  0.04260323  0.39088917  0.29807216     0.08400
N97         N  0.03535421  0.53668200  0.04915714    -0.26000
N98         N  0.03616934  0.56482093  0.07553419    -0.33800
C99         C  0.03870939  0.55650817  0.12448662     0.02400
C100        C  0.03965607  0.52135507  0.12916270     0.08400
C101        C  0.03747840  0.50973507  0.08040664    -0.04700
H102        H  0.03911845  0.57483067  0.15439902     0.09000
H103        H  0.03778609  0.48365412  0.06816788     0.10200
Cu104      Cu  0.03379237  0.61301341  0.04313575     0.44200
Cu105      Cu  0.03114228  0.53614112  0.97206696     0.42000
Cu106      Cu  0.03145263  0.61698385  0.90641269     0.43900
N107        N  0.03133627  0.65795901  0.00163547    -0.33400
N108        N  0.03089403  0.65946801  0.95204499    -0.27600
C109        C  0.02894409  0.69224471  0.93731997    -0.03700
C110        C  0.02798936  0.71243138  0.97965127     0.08500
C111        C  0.02960395  0.68970366  0.01970357     0.02300
H112        H  0.02754104  0.70064890  0.89858122     0.09900
H113        H  0.02986658  0.69571160  0.05921062     0.09000
N114        N  0.02830410  0.57053122  0.87072391    -0.34800
N115        N  0.02765932  0.54120706  0.89514597    -0.27000
C116        C  0.02438086  0.51603265  0.86210262    -0.02200
C117        C  0.02286447  0.53005435  0.81431858     0.06400
C118        C  0.02555158  0.56472070  0.82122933     0.04500
H119        H  0.02362561  0.48942699  0.87228675     0.09600
H120        H  0.02483797  0.58438305  0.79259490     0.08400
C121        C  0.99773279  0.46407324  0.71965656     0.24900
C122        C  0.01494533  0.47477408  0.67635404    -0.23200
C123        C  0.03382263  0.50456252  0.67839672     0.19800
C124        C  0.03596405  0.52279686  0.72296621     0.24800
C125        C  0.01935321  0.51165779  0.76649719    -0.23200
C126        C  0.99995317  0.48227216  0.76423691     0.19700
F127        F  0.98243160  0.47145488  0.80489809    -0.13100
F128        F  0.97809670  0.43634175  0.71873094    -0.15500
F129        F  0.05564375  0.55049486  0.72397645    -0.15500
F130        F  0.05159878  0.51536128  0.63799573    -0.13100
C131        C  0.05813959  0.49479458  0.26401691     0.24900
C132        C  0.04185737  0.46358839  0.26748136    -0.23200
C133        C  0.02649860  0.45051938  0.22437195     0.19800
C134        C  0.02620923  0.46896583  0.17924428     0.24800
C135        C  0.04153358  0.50080035  0.17615244    -0.23200
C136        C  0.05809138  0.51313747  0.21885580     0.19700
F137        F  0.07485461  0.54271928  0.21688976    -0.13100
F138        F  0.07468075  0.50738586  0.30420648    -0.15500
F139        F  0.00945018  0.45622715  0.13939318    -0.15500
F140        F  0.01018441  0.42066612  0.22635046    -0.13100
C141        C  0.05008807  0.17323860  0.52902681     0.24900
C142        C  0.03846002  0.15425589  0.48804988    -0.23200
C143        C  0.02490947  0.17204629  0.44589873     0.19800
C144        C  0.02233499  0.20747582  0.44528726     0.24800
C145        C  0.03344348  0.22625584  0.48646654    -0.23200
C146        C  0.04751047  0.20875842  0.52822147     0.19700
F147        F  0.05969499  0.22599586  0.56792880    -0.13100
F148        F  0.06433775  0.15766333  0.56998035    -0.15500
F149        F  0.00782473  0.22328109  0.40472256    -0.15500
F150        F  0.01350354  0.15538882  0.40511257    -0.13100
C151        C  0.06045063  0.04146651  0.67131930     0.24900
C152        C  0.08781858  0.01776321  0.66874925    -0.23200
C153        C  0.10013282  0.00767649  0.62154071     0.19800
C154        C  0.08589542  0.02172211  0.57757717     0.24800
C155        C  0.05979915  0.04676182  0.58024094    -0.23200
C156        C  0.04687340  0.05623689  0.62736114     0.19700
F157        F  0.02133090  0.08007878  0.63076803    -0.13100
F158        F  0.04814442  0.05172638  0.71642754    -0.15500
F159        F  0.09887798  0.01224711  0.53250868    -0.15500
F160        F  0.12624647  0.98446824  0.61806115    -0.13100
C161        C  0.97052356  0.00772843  0.37813177     0.24900
C162        C  0.97622765  0.01843293  0.32848957    -0.23200
C163        C  0.00132635  0.04223578  0.31883448     0.19800
C164        C  0.01928760  0.05637009  0.35853244     0.24800
C165        C  0.01304047  0.04625002  0.40840694    -0.23200
C166        C  0.98908947  0.02116507  0.41771802     0.19700
F167        F  0.98234632  0.01089030  0.46535282    -0.13100
F168        F  0.94691287  0.98419718  0.38828650    -0.15500
F169        F  0.04262181  0.08016844  0.34828271    -0.15500
F170        F  0.00735535  0.05293647  0.27117034    -0.13100
C171        C  0.00620478  0.80196486  0.02345211     0.24900
C172        C  0.02271002  0.82211706  0.98738147    -0.23200
C173        C  0.04036549  0.80548875  0.94808290     0.19800
C174        C  0.04176799  0.77001808  0.94538085     0.24800
C175        C  0.02569197  0.75009177  0.98180177    -0.23200
C176        C  0.00770359  0.76648636  0.02063482     0.19700
F177        F  0.99072366  0.74822612  0.05544402    -0.13100
F178        F  0.98826067  0.81636264  0.06155669    -0.15500
F179        F  0.06002005  0.75521746  0.90790741    -0.15500
F180        F  0.05708047  0.82331685  0.91248468    -0.13100
C181        C  0.09228603  0.97551086  0.88973745     0.24900
C182        C  0.08469789  0.96876445  0.83927826    -0.23200
C183        C  0.05992444  0.94488868  0.82822146     0.19800
C184        C  0.04397336  0.92720491  0.86686408     0.24800
C185        C  0.05192518  0.93359086  0.91725300    -0.23200
C186        C  0.07568649  0.95839308  0.92843796     0.19700
F187        F  0.08388732  0.96504452  0.97680130    -0.13100
F188        F  0.11573558  0.99874149  0.90157030    -0.15500
F189        F  0.02060820  0.90387639  0.85503242    -0.15500
F190        F  0.05218198  0.93754344  0.77992565    -0.13100
C191        C  0.99525778  0.97450874  0.14084129     0.24900
C192        C  0.96801743  0.96023580  0.16666905    -0.23200
C193        C  0.95549224  0.92912421  0.15053552     0.19800
C194        C  0.96979346  0.91261846  0.10915411     0.24800
C195        C  0.99678191  0.92705354  0.08258075    -0.23200
C196        C  0.00935098  0.95824157  0.09893262     0.19700
F197        F  0.03548421  0.97296783  0.07466944    -0.13100
F198        F  0.00749165  0.00478972  0.15513976    -0.15500
F199        F  0.95640316  0.88298422  0.09431115    -0.15500
F200        F  0.92954720  0.91438691  0.17528361    -0.13100
C201        C  0.84621767  0.01304927  0.29264916     0.24900
C202        C  0.86384211  0.99271484  0.25732748    -0.23200
C203        C  0.84469302  0.97310246  0.22408676     0.19800
C204        C  0.80921945  0.97398425  0.22585076     0.24800
C205        C  0.79174156  0.99437695  0.26083364    -0.23200
C206        C  0.81057529  0.01377622  0.29439998     0.19700
F207        F  0.79450042  0.03441834  0.32786319    -0.13100
F208        F  0.86325117  0.03293962  0.32486853    -0.15500
F209        F  0.79203624  0.95396769  0.19397754    -0.15500
F210        F  0.86008305  0.95249266  0.18991490    -0.13100
C211        C  0.51920049  0.97780221  0.47416754     0.24900
C212        C  0.54715323  0.99864705  0.46635390    -0.23200
C213        C  0.55560893  0.02217345  0.50330513     0.19800
C214        C  0.53654936  0.02470678  0.54738675     0.24800
C215        C  0.50871093  0.00374180  0.55532326    -0.23200
C216        C  0.50014323  0.98033242  0.51827200     0.19700
F217        F  0.47413099  0.95896260  0.52555325    -0.13100
F218        F  0.51100369  0.95413341  0.43987104    -0.15500
F219        F  0.54472705  0.04838975  0.58167283    -0.15500
F220        F  0.58162322  0.04354843  0.49605723    -0.13100
C221        C  0.56071007  0.01692382  0.01529746     0.24900
C222        C  0.54817567  0.99856499  0.05649019    -0.23200
C223        C  0.51679072  0.98265920  0.05187114     0.19800
C224        C  0.49834690  0.98500937  0.00706651     0.24800
C225        C  0.51082657  0.00338682  0.96586297    -0.23200
C226        C  0.54223520  0.01930058  0.97044458     0.19700
F227        F  0.55466826  0.03813778  0.93210899    -0.13100
F228        F  0.59030165  0.03361590  0.01881701    -0.15500
F229        F  0.46882630  0.96819872  0.00362867    -0.15500
F230        F  0.50435044  0.96377441  0.09014580    -0.13100
C231        C  0.21055000  0.01210025  0.80439288     0.24900
C232        C  0.19368276  0.99856378  0.76298809    -0.23200
C233        C  0.21292223  0.98644494  0.72227126     0.19800
C234        C  0.24837190  0.98781028  0.72274751     0.24800
C235        C  0.26552357  0.00216310  0.76354856    -0.23200
C236        C  0.24607141  0.01429230  0.80447526     0.19700
F237        F  0.26110128  0.02939354  0.84394563    -0.13100
F238        F  0.19254409  0.02449401  0.84394207    -0.15500
F239        F  0.26574968  0.97410903  0.68359866    -0.15500
F240        F  0.19740123  0.97237631  0.68228805    -0.13100
loop_ 
_geom_bond_atom_site_label_1 
_geom_bond_atom_site_label_2 
_geom_bond_distance 
_geom_bond_site_symmetry_2 
_ccdc_geom_bond_type 
N1            N2   1.321       .  A
N1            C5   1.343       .  A
N1           Cu9   2.062       .  S
N2            C3   1.346       .  A
N2           Cu8   2.079       .  S
C3            C4   1.386       .  A
C3            H6   1.082       .  S
C4            C5   1.382       .  A
C4          C215   1.477       .  S
C5            H7   1.082       .  S
Cu8          N11   2.079       .  S
Cu9          N19   2.062       .  S
Cu10         N12   2.070       .  S
Cu10         N18   2.070       .  S
N11          N12   1.321       .  A
N11          C15   1.344       .  A
N12          C13   1.345       .  A
C13          C14   1.388       .  A
C13          H16   1.081       .  S
C14          C15   1.390       .  A
C14         C235   1.491       .  S
C15          H17   1.081       .  S
N18          N19   1.321       .  A
N18          C22   1.343       .  A
N19          C20   1.343       .  A
C20          C21   1.385       .  A
C20          H23   1.081       .  S
C21          C22   1.386       .  A
C21         C225   1.480       .  S
C22          H24   1.081       .  S
N25          N26   1.320       .  A
N25          C29   1.342       .  A
N25         Cu33   2.062       .  S
N26          C27   1.344       .  A
N26         Cu32   2.068       .  S
C27          C28   1.386       .  A
C27          H30   1.081       .  S
C28          C29   1.384       .  A
C28         C222   1.479       .  S
C29          H31   1.081       .  S
Cu32         N35   2.069       .  S
Cu33         N43   2.062       .  S
Cu34         N36   2.077       .  S
Cu34         N42   2.077       .  S
N35          N36   1.322       .  A
N35          C39   1.342       .  A
N36          C37   1.346       .  A
C37          C38   1.386       .  A
C37          H40   1.082       .  S
C38          C39   1.384       .  A
C38         C205   1.481       .  S
C39          H41   1.082       .  S
N42          N43   1.322       .  A
N42          C46   1.345       .  A
N43          C44   1.343       .  A
C44          C45   1.382       .  A
C44          H47   1.081       .  S
C45          C46   1.386       .  A
C45         C212   1.477       .  S
C46          H48   1.081   1_565  S
C49          N50   1.359       .  A
C49          N54   1.361   1_556  A
C49         C172   1.496       .  S
N50          C51   1.358       .  A
C51          N52   1.357   1_556  A
C51         C185   1.475       .  S
N52          C53   1.359       .  A
C53          N54   1.361       .  A
C53         C195   1.485   1_455  S
C55          N56   1.360   1_565  A
C55          N60   1.356       .  A
C55         C202   1.491       .  S
N56          C57   1.361       .  A
C57          N58   1.360   1_545  A
C57         C162   1.475       .  S
N58          C59   1.358       .  A
C59          N60   1.355       .  A
C59         C192   1.476       .  S
C61          N62   1.358       .  A
C61          N66   1.358       .  A
C61         C142   1.492       .  S
N62          C63   1.357       .  A
C63          N64   1.360       .  A
C63         C165   1.478       .  S
N64          C65   1.359       .  A
C65          N66   1.358       .  A
C65         C155   1.473       .  S
C67          N68   1.359       .  A
C67          N72   1.357   1_565  A
C67         C232   1.477       .  S
N68          C69   1.361       .  A
C69          N70   1.360       .  A
C69         C182   1.478       .  S
N70          C71   1.358   1_565  A
C71          N72   1.356       .  A
C71         C152   1.474       .  S
N73          N74   1.322       .  A
N73          C77   1.343       .  A
N73         Cu81   2.065       .  S
N74          C75   1.345       .  A
N74         Cu80   2.079       .  S
C75          C76   1.388       .  A
C75          H78   1.081       .  S
C76          C77   1.385       .  A
C76         C122   1.483       .  S
C77          H79   1.081       .  S
Cu80         N83   2.079       .  S
Cu81         N91   2.065       .  S
Cu82         N84   2.067       .  S
Cu82         N90   2.067       .  S
N83          N84   1.322       .  A
N83          C87   1.346       .  A
N84          C85   1.342       .  A
C85          C86   1.384       .  A
C85          H88   1.082       .  S
C86          C87   1.388       .  A
C86         C145   1.483       .  S
C87          H89   1.082       .  S
N90          N91   1.320       .  A
N90          C94   1.344       .  A
N91          C92   1.343       .  A
C92          C93   1.385       .  A
C92          H95   1.082       .  S
C93          C94   1.386       .  A
C93         C132   1.480       .  S
C94          H96   1.082       .  S
N97          N98   1.320       .  A
N97         C101   1.343       .  A
N97        Cu105   2.061   1_554  S
N98          C99   1.344       .  A
N98        Cu104   2.077       .  S
C99         C100   1.389       .  A
C99         H102   1.081       .  S
C100        C101   1.385       .  A
C100        C135   1.485       .  S
C101        H103   1.081       .  S
Cu104       N107   2.078       .  S
Cu105       N115   2.061       .  S
Cu106       N108   2.079       .  S
Cu106       N114   2.078       .  S
N107        N108   1.322   1_554  A
N107        C111   1.345       .  A
N108        C109   1.346       .  A
C109        C110   1.387       .  A
C109        H112   1.082       .  S
C110        C111   1.386   1_556  A
C110        C175   1.486       .  S
C111        H113   1.082       .  S
N114        N115   1.321       .  A
N114        C118   1.346       .  A
N115        C116   1.342       .  A
C116        C117   1.383       .  A
C116        H119   1.081       .  S
C117        C118   1.387       .  A
C117        C125   1.481       .  S
C118        H120   1.081       .  S
C121        C122   1.407   1_655  A
C121        C126   1.398       .  A
C121        F128   1.357       .  S
C122        C123   1.409       .  A
C123        C124   1.398       .  A
C123        F130   1.357       .  S
C124        C125   1.406       .  A
C124        F129   1.357       .  S
C125        C126   1.408   1_455  A
C126        F127   1.358       .  S
C131        C132   1.406       .  A
C131        C136   1.397       .  A
C131        F138   1.358       .  S
C132        C133   1.406       .  A
C133        C134   1.399       .  A
C133        F140   1.358       .  S
C134        C135   1.410       .  A
C134        F139   1.357       .  S
C135        C136   1.408       .  A
C136        F137   1.357       .  S
C141        C142   1.413       .  A
C141        C146   1.400       .  A
C141        F148   1.358       .  S
C142        C143   1.412       .  A
C143        C144   1.396       .  A
C143        F150   1.358       .  S
C144        C145   1.406       .  A
C144        F149   1.358       .  S
C145        C146   1.406       .  A
C146        F147   1.357       .  S
C151        C152   1.405       .  A
C151        C156   1.400       .  A
C151        F158   1.358       .  S
C152        C153   1.406       .  A
C153        C154   1.399       .  A
C153        F160   1.358   1_545  S
C154        C155   1.404       .  A
C154        F159   1.358       .  S
C155        C156   1.406       .  A
C156        F157   1.358       .  S
C161        C162   1.405       .  A
C161        C166   1.399       .  A
C161        F168   1.358   1_545  S
C162        C163   1.405   1_655  A
C163        C164   1.400       .  A
C163        F170   1.358       .  S
C164        C165   1.408       .  A
C164        F169   1.358       .  S
C165        C166   1.407   1_455  A
C166        F167   1.358       .  S
C171        C172   1.412   1_554  A
C171        C176   1.400       .  A
C171        F178   1.357   1_455  S
C172        C173   1.414       .  A
C173        C174   1.400       .  A
C173        F180   1.358       .  S
C174        C175   1.406       .  A
C174        F179   1.358       .  S
C175        C176   1.407   1_556  A
C176        F177   1.358   1_455  S
C181        C182   1.406       .  A
C181        C186   1.400       .  A
C181        F188   1.358       .  S
C182        C183   1.407       .  A
C183        C184   1.398       .  A
C183        F190   1.358       .  S
C184        C185   1.405       .  A
C184        F189   1.358       .  S
C185        C186   1.406       .  A
C186        F187   1.358       .  S
C191        C192   1.404       .  A
C191        C196   1.401   1_655  A
C191        F198   1.358   1_665  S
C192        C193   1.406       .  A
C193        C194   1.397       .  A
C193        F200   1.358       .  S
C194        C195   1.408       .  A
C194        F199   1.358       .  S
C195        C196   1.411   1_655  A
C196        F197   1.358       .  S
C201        C202   1.412   1_545  A
C201        C206   1.402       .  A
C201        F208   1.358       .  S
C202        C203   1.412       .  A
C203        C204   1.395       .  A
C203        F210   1.358       .  S
C204        C205   1.404       .  A
C204        F209   1.358       .  S
C205        C206   1.406   1_565  A
C206        F207   1.358       .  S
C211        C212   1.407       .  A
C211        C216   1.398       .  A
C211        F218   1.358       .  S
C212        C213   1.406   1_565  A
C213        C214   1.398       .  A
C213        F220   1.358       .  S
C214        C215   1.407       .  A
C214        F219   1.358       .  S
C215        C216   1.405   1_545  A
C216        F217   1.358       .  S
C221        C222   1.407   1_545  A
C221        C226   1.398   1_554  A
C221        F228   1.357       .  S
C222        C223   1.407       .  A
C223        C224   1.396       .  A
C223        F230   1.357       .  S
C224        C225   1.407   1_564  A
C224        F229   1.357       .  S
C225        C226   1.408       .  A
C226        F227   1.357       .  S
C231        C232   1.404   1_545  A
C231        C236   1.402       .  A
C231        F238   1.358       .  S
C232        C233   1.404       .  A
C233        C234   1.397       .  A
C233        F240   1.358       .  S
C234        C235   1.410   1_565  A
C234        F239   1.356       .  S
C235        C236   1.413       .  A
C236        F237   1.357       .  S
