geometry optimzed in LAMMPS
_audit_creation_date              2020-11-30 
_audit_creation_method            'lammps2cif' 
_symmetry_space_group_name_H-M    'P1' 
_symmetry_Int_Tables_number       1 
_symmetry_cell_setting            triclinic 
loop_ 
_symmetry_equiv_pos_as_xyz 
  x,y,z 
_cell_length_a                    47.71518183 
_cell_length_b                    47.460843036476234 
_cell_length_c                    30.814580051386915 
_cell_angle_alpha                 91.52935344258701 
_cell_angle_beta                  87.58721184832326 
_cell_angle_gamma                 90.34149225050095 
loop_ 
_atom_site_label 
_atom_site_type_symbol 
_atom_site_fract_x 
_atom_site_fract_y 
_atom_site_fract_z 
_atom_site_charge 
N1          N  0.47456900  0.00058992  0.67437910    -0.27500
N2          N  0.45123240  0.99875594  0.65276379    -0.35400
C3          C  0.45790063  0.00007734  0.60994500     0.00800
C4          C  0.48683707  0.00293575  0.60421004     0.06900
C5          C  0.49654928  0.00312535  0.64603441    -0.06200
H6          H  0.44264251  0.99918053  0.58500859     0.07500
H7          H  0.51802541  0.00493536  0.65561260     0.08700
Cu8        Cu  0.41112789  0.99446932  0.68201868     0.44200
Cu9        Cu  0.47661880  0.99975868  0.74140279     0.42000
Cu10       Cu  0.41058758  0.98927549  0.79828634     0.43900
N11         N  0.37440090  0.98877473  0.72033034    -0.34900
N12         N  0.37470797  0.98629181  0.76291016    -0.29200
C13         C  0.34837161  0.98252927  0.77888876    -0.05300
C14         C  0.33025545  0.98274435  0.74490322     0.07000
C15         C  0.34759842  0.98685459  0.70814373     0.00800
H16         H  0.34285189  0.98051761  0.81307284     0.08400
H17         H  0.34126661  0.98825105  0.67497754     0.07500
N18         N  0.44807229  0.99411454  0.82913680    -0.36300
N19         N  0.47251264  0.99807188  0.80848510    -0.28500
C20         C  0.49255265  0.00071000  0.83781244    -0.03800
C21         C  0.48007620  0.99828407  0.87912437     0.04800
C22         C  0.45180110  0.99412452  0.87205840     0.01700
H23         H  0.51453647  0.00401703  0.82943340     0.08000
H24         H  0.43491825  0.99155732  0.89616055     0.06900
N25         N  0.57900261  0.01250191  0.16027084    -0.27500
N26         N  0.60408818  0.01392614  0.14057367    -0.35400
C27         C  0.60111955  0.01416359  0.09737593     0.00800
C28         C  0.57274897  0.01273058  0.08933230     0.06900
C29         C  0.55942061  0.01170428  0.13016840    -0.06200
H30         H  0.61846870  0.01487345  0.07369407     0.07500
H31         H  0.53711960  0.01066487  0.13776059     0.08700
Cu32       Cu  0.64132675  0.01476959  0.17305753     0.44200
Cu33       Cu  0.57226109  0.01188824  0.22712346     0.42000
Cu34       Cu  0.63523963  0.01478678  0.28984626     0.43900
N35         N  0.67570753  0.01386632  0.21209503    -0.34900
N36         N  0.67367177  0.01419423  0.25500746    -0.29200
C37         C  0.69964751  0.01294239  0.27042387    -0.05300
C38         C  0.71899254  0.01150314  0.23547754     0.07000
C39         C  0.70291247  0.01218781  0.19905960     0.00800
H40         H  0.70403531  0.01234507  0.30454736     0.08400
H41         H  0.71037131  0.01148613  0.16541205     0.07500
N42         N  0.59453534  0.01365632  0.31718857    -0.36300
N43         N  0.57167520  0.01243276  0.29443826    -0.28500
C44         C  0.54902320  0.01131730  0.32187523    -0.03800
C45         C  0.55792880  0.01182849  0.36422432     0.04800
C46         C  0.58700506  0.01335331  0.35971407     0.02900
H47         H  0.52768861  0.01007363  0.31144233     0.08000
H48         H  0.60183785  0.01374631  0.38526748     0.06900
C49         C  0.00976691  0.86874032  0.99621448     0.80000
N50         N  0.99479056  0.88191145  0.02933193    -0.78300
C51         C  0.99572082  0.91049466  0.03468941     0.82400
N52         N  0.01152309  0.92597077  0.00601854    -0.78300
C53         C  0.02632539  0.91304182  0.97237939     0.82500
N54         N  0.02546596  0.88451085  0.96811980    -0.80000
C55         C  0.88462849  0.01399417  0.27062133     0.80000
N56         N  0.89853968  0.02964906  0.30049734    -0.78300
C57         C  0.92702050  0.03088853  0.29916734     0.82400
N58         N  0.94174640  0.01655729  0.26692472    -0.78300
C59         C  0.92818270  0.00096697  0.23640495     0.82500
N60         N  0.89963557  0.99957009  0.23876344    -0.80000
C61         C  0.03663693  0.14610419  0.51134598     0.80000
N62         N  0.02171139  0.13135341  0.48154061    -0.78300
C63         C  0.02183683  0.10264456  0.48051283     0.82400
N64         N  0.03653613  0.08873229  0.51018456    -0.78300
C65         C  0.05145031  0.10329332  0.54007793     0.82500
N66         N  0.05165324  0.13187208  0.54009939    -0.80000
C67         C  0.16254645  0.99173980  0.74020694     0.80000
N68         N  0.14914573  0.97681268  0.77213401    -0.78300
C69         C  0.12077286  0.97835677  0.77855380     0.82400
N70         N  0.10571426  0.99438971  0.75211381    -0.78300
C71         C  0.11873572  0.00893526  0.71955273     0.82500
N72         N  0.14713363  0.00778477  0.71420459    -0.80000
N73         N  0.04183412  0.45619809  0.56052306    -0.27500
N74         N  0.03710449  0.43309189  0.58263051    -0.35400
C75         C  0.03474554  0.44018102  0.62522532     0.00800
C76         C  0.03809221  0.46924207  0.62995862     0.06900
C77         C  0.04264616  0.47849532  0.58802961    -0.06200
H78         H  0.03028918  0.42527744  0.65055811     0.07500
H79         H  0.04514124  0.49997240  0.57765647     0.08700
Cu80       Cu  0.03251171  0.39367410  0.55240731     0.44200
Cu81       Cu  0.04344707  0.45769198  0.49400340     0.42000
Cu82       Cu  0.02981213  0.39469697  0.43315588     0.43900
N83         N  0.02972922  0.35790082  0.51212236    -0.34900
N84         N  0.02874010  0.35840432  0.46931327    -0.29200
C85         C  0.02778206  0.33180692  0.45332461    -0.05300
C86         C  0.02825170  0.31347520  0.48756608     0.07000
C87         C  0.02945602  0.33089541  0.52438396     0.00800
H88         H  0.02740570  0.32635882  0.41906190     0.08400
H89         H  0.03018410  0.32454589  0.55776038     0.07500
N90         N  0.03279547  0.43396784  0.40531222    -0.36300
N91         N  0.03823299  0.45706192  0.42824106    -0.28500
C92         C  0.03852387  0.47929370  0.40230867    -0.03800
C93         C  0.03306473  0.46988519  0.36054807     0.04800
C94         C  0.02952566  0.44089309  0.36378736     0.02900
H95         H  0.04202962  0.50072620  0.41360572     0.08000
H96         H  0.02486730  0.42583521  0.33811563     0.06900
N97         N  0.00965847  0.55622841  0.06546159    -0.27500
N98         N  0.01211081  0.57950832  0.08935089    -0.35400
C99         C  0.01449016  0.57245636  0.13104061     0.00800
C100        C  0.01348197  0.54322049  0.13326900     0.06900
C101        C  0.01040417  0.53378317  0.09085700    -0.06200
H102        H  0.01679754  0.58756456  0.15756044     0.07500
H103        H  0.00941769  0.51220458  0.07881315     0.08700
Cu104      Cu  0.01254517  0.61914129  0.06212957     0.44200
Cu105      Cu  0.00725376  0.55584852  0.99931061     0.42000
Cu106      Cu  0.01689924  0.62055895  0.94213135     0.43900
N107        N  0.01169942  0.65555644  0.02604723    -0.34900
N108        N  0.01391944  0.65629336  0.98312094    -0.29200
C109        C  0.01198949  0.68327907  0.97107452    -0.05300
C110        C  0.00803874  0.70033889  0.00809610     0.07000
C111        C  0.00805263  0.68192909  0.04225135     0.00800
H112        H  0.01253548  0.68984033  0.93770649     0.08400
H113        H  0.00556985  0.68722551  0.07653967     0.07500
N114        N  0.01471414  0.58096816  0.91120660    -0.36300
N115        N  0.01042566  0.55766929  0.93301626    -0.28500
C116        C  0.00994140  0.53546461  0.90533539    -0.03800
C117        C  0.01412773  0.54494331  0.86350807     0.04800
C118        C  0.01709301  0.57405453  0.86851284     0.02900
H119        H  0.00743904  0.51394471  0.91549812     0.08000
H120        H  0.02080286  0.58914491  0.84322230     0.06900
C121        C  0.03527264  0.48709962  0.67018306    -0.05500
C122        C  0.04172559  0.51607971  0.66917795    -0.05400
C123        C  0.03839050  0.53323017  0.70649954    -0.23500
C124        C  0.02865722  0.52177347  0.74572614     0.18700
C125        C  0.02218822  0.49271855  0.74727421     0.15900
C126        C  0.02552997  0.47558497  0.70961875    -0.18600
C127        C  0.01247327  0.48125162  0.78650136    -0.20400
C128        C  0.00950619  0.49832807  0.82394931    -0.13000
C129        C  0.01621689  0.52726186  0.82303758     0.03700
C130        C  0.02556027  0.53886012  0.78347641    -0.25100
H131        H  0.04948491  0.52571722  0.63961728     0.08800
H132        H  0.04352232  0.55544645  0.70467962     0.12400
H133        H  0.02029399  0.45341691  0.71116771     0.12300
H134        H  0.00727333  0.45905194  0.78829738     0.12100
H135        H  0.00191600  0.48864438  0.85357170     0.12600
H136        H  0.03089728  0.56101963  0.78200206     0.14600
C137        C  0.03107937  0.48729286  0.32149743    -0.05500
C138        C  0.03793010  0.51618892  0.32340337    -0.05400
C139        C  0.03588469  0.53279592  0.28701885    -0.23500
C140        C  0.02696727  0.52089711  0.24790267     0.18700
C141        C  0.02017012  0.49190167  0.24538276     0.15900
C142        C  0.02224516  0.47531238  0.28209975    -0.18600
C143        C  0.01132665  0.48000640  0.20618181    -0.20400
C144        C  0.00915106  0.49669315  0.16986788    -0.13000
C145        C  0.01577660  0.52563587  0.17200275     0.03700
C146        C  0.02473602  0.53754447  0.21131394    -0.25100
H147        H  0.04501590  0.52617525  0.35292868     0.08800
H148        H  0.04127255  0.55498786  0.28951767     0.12400
H149        H  0.01677633  0.45315725  0.27982956     0.12300
H150        H  0.00599713  0.45780242  0.20361682     0.12100
H151        H  0.00198446  0.48683144  0.14028456     0.12600
H152        H  0.03020146  0.55970232  0.21355832     0.14600
C153        C  0.02828192  0.28214983  0.48504203    -0.05500
C154        C  0.02093877  0.26764752  0.44669980    -0.05400
C155        C  0.02099786  0.23818527  0.44410512    -0.23500
C156        C  0.02851437  0.22257415  0.47975640     0.18700
C157        C  0.03619803  0.23688979  0.51830313     0.15900
C158        C  0.03590463  0.26647867  0.52078706    -0.18600
C159        C  0.04415679  0.22137641  0.55376353    -0.20400
C160        C  0.04441872  0.19196363  0.55116613    -0.13000
C161        C  0.03644321  0.17738601  0.51323994     0.03700
C162        C  0.02849419  0.19292538  0.47752706    -0.25100
H163        H  0.01481609  0.27899860  0.41865343     0.08800
H164        H  0.01511782  0.22762330  0.41422918     0.12400
H165        H  0.04197143  0.27718499  0.55041855     0.12300
H166        H  0.05019036  0.23197847  0.58353312     0.12100
H167        H  0.05058487  0.18060376  0.57921822     0.12600
H168        H  0.02256630  0.18201264  0.44794654     0.14600
C169        C  0.06760464  0.08839889  0.57224610    -0.05500
C170        C  0.09440286  0.09818324  0.58264626    -0.05400
C171        C  0.10985631  0.08447676  0.61327951    -0.23500
C172        C  0.09845487  0.06116812  0.63494181     0.18700
C173        C  0.07115959  0.05164220  0.62560764     0.15900
C174        C  0.05610873  0.06498882  0.59372180    -0.18600
C175        C  0.05935279  0.02904312  0.64853575    -0.20400
C176        C  0.07456380  0.01572926  0.67990213    -0.13000
C177        C  0.10208404  0.02436533  0.68835701     0.03700
C178        C  0.11386057  0.04725529  0.66578270    -0.25100
H179        H  0.10356181  0.11626341  0.56654400     0.08800
H180        H  0.13064640  0.09221600  0.62021538     0.12400
H181        H  0.03523695  0.05764097  0.58635819     0.12300
H182        H  0.03837364  0.02161028  0.64214415     0.12100
H183        H  0.06502744  0.99814058  0.69677263     0.12600
H184        H  0.13493473  0.05434052  0.67240019     0.14600
C185        C  0.00763236  0.08660626  0.44574588    -0.05500
C186        C  0.02010540  0.06213644  0.42720901    -0.05400
C187        C  0.00736615  0.04701581  0.39374777    -0.23500
C188        C  0.98148359  0.05563828  0.37888507     0.18700
C189        C  0.96838649  0.07989447  0.39792961     0.15900
C190        C  0.98178366  0.09553416  0.43068579    -0.18600
C191        C  0.94197767  0.08783711  0.38420360    -0.20400
C192        C  0.92862182  0.07183873  0.35222741    -0.13000
C193        C  0.94165419  0.04795841  0.33251643     0.03700
C194        C  0.96830149  0.04015847  0.34579612    -0.25100
H195        H  0.04005918  0.05495414  0.43813620     0.08800
H196        H  0.01766388  0.02841122  0.37974824     0.12400
H197        H  0.97186315  0.11424045  0.44509791     0.12300
H198        H  0.93149694  0.10624309  0.39853771     0.12100
H199        H  0.90812018  0.07832047  0.34257670     0.12600
H200        H  0.97841042  0.02158918  0.33127346     0.14600
C201        C  0.00417058  0.73139206  0.01090362    -0.05500
C202        C  0.99077533  0.74413560  0.04788554    -0.05400
C203        C  0.98803983  0.77343636  0.05162652    -0.23500
C204        C  0.99896065  0.79066544  0.01868719     0.18700
C205        C  0.01207151  0.77808539  0.98105127     0.15900
C206        C  0.01433451  0.74858108  0.97718757    -0.18600
C207        C  0.02328247  0.79525915  0.94831382    -0.20400
C208        C  0.02215719  0.82458645  0.95320850    -0.13000
C209        C  0.00955456  0.83747786  0.99077433     0.03700
C210        C  0.99755281  0.82023172  0.02316472    -0.25100
H211        H  0.98232712  0.73145299  0.07405693     0.08800
H212        H  0.97776883  0.78263683  0.08063136     0.12400
H213        H  0.02481008  0.73911997  0.94856261     0.12300
H214        H  0.03334752  0.78602096  0.91917800     0.12100
H215        H  0.03139819  0.83718313  0.92749859     0.12600
H216        H  0.98775501  0.82974171  0.05232259     0.14600
C217        C  0.10623305  0.96252395  0.81368881    -0.05500
C218        C  0.11379885  0.93462204  0.82145718    -0.05400
C219        C  0.09951311  0.91931277  0.85379094    -0.23500
C220        C  0.07790110  0.93191591  0.87973143     0.18700
C221        C  0.07060371  0.96021650  0.87288438     0.15900
C222        C  0.08446069  0.97516433  0.83939922    -0.18600
C223        C  0.04964798  0.97309337  0.89977108    -0.20400
C224        C  0.03581831  0.95802853  0.93283771    -0.13000
C225        C  0.04228335  0.92962009  0.93919624     0.03700
C226        C  0.06350589  0.91673874  0.91241744    -0.25100
H227        H  0.13041232  0.92448283  0.80187281     0.08800
H228        H  0.10546374  0.89766024  0.85864692     0.12400
H229        H  0.07867927  0.99678472  0.83381107     0.12300
H230        H  0.04391183  0.99483651  0.89519514     0.12100
H231        H  0.01957204  0.96845321  0.95279474     0.12600
H232        H  0.06895123  0.89491862  0.91712221     0.14600
C233        C  0.94424378  0.98709934  0.19934017    -0.05500
C234        C  0.97005677  0.99843262  0.18431836    -0.05400
C235        C  0.98483921  0.98625068  0.14840538    -0.23500
C236        C  0.97445413  0.96206033  0.12726009     0.18700
C237        C  0.94886388  0.95002529  0.14266397     0.15900
C238        C  0.93373024  0.96283326  0.17812769    -0.18600
C239        C  0.93897889  0.92526337  0.12249683    -0.20400
C240        C  0.95431766  0.91247614  0.08764916    -0.13000
C241        C  0.97953844  0.92449569  0.07148072     0.03700
C242        C  0.98936034  0.94952666  0.09133156    -0.25100
H243        H  0.97858429  0.01714284  0.19984668     0.08800
H244        H  0.00448932  0.99571213  0.13727832     0.12400
H245        H  0.91398451  0.95369891  0.18959068     0.12300
H246        H  0.91948609  0.91562049  0.13392384     0.12100
H247        H  0.94625881  0.89326540  0.07295180     0.12600
H248        H  0.00894450  0.95883701  0.07954017     0.14600
C249        C  0.75000748  0.00889057  0.23640524    -0.05500
C250        C  0.76528533  0.99699839  0.20049056    -0.05400
C251        C  0.79448182  0.99469602  0.20065600    -0.23500
C252        C  0.80912108  0.00457577  0.23655124     0.18700
C253        C  0.79405627  0.01655878  0.27290939     0.15900
C254        C  0.76461008  0.01840288  0.27280237    -0.18600
C255        C  0.80875646  0.02684784  0.30849707    -0.20400
C256        C  0.83806533  0.02567618  0.30782825    -0.13000
C257        C  0.85337761  0.01395353  0.27173131     0.03700
C258        C  0.83858302  0.00308685  0.23634426    -0.25100
H259        H  0.75464473  0.98917339  0.17222602     0.08800
H260        H  0.80563255  0.98540816  0.17250623     0.12400
H261        H  0.75318078  0.02781740  0.30060238     0.12300
H262        H  0.79761255  0.03611613  0.33668129     0.12100
H263        H  0.84874982  0.03411038  0.33566916     0.12600
H264        H  0.84996366  0.99406951  0.20818753     0.14600
C265        C  0.50381042  0.00555233  0.56277310    -0.05500
C266        C  0.53288791  0.01072184  0.56343960    -0.05400
C267        C  0.54902355  0.01328149  0.52488005    -0.23500
C268        C  0.53652193  0.01069738  0.48466789     0.18700
C269        C  0.50739528  0.00555812  0.48330193     0.15900
C270        C  0.49123367  0.00302246  0.52226183    -0.18600
C271        C  0.49497773  0.00297006  0.44294483    -0.20400
C272        C  0.51128999  0.00523377  0.40436674    -0.13000
C273        C  0.54040289  0.01014963  0.40527180     0.03700
C274        C  0.55275102  0.01303969  0.44585769    -0.25100
H275        H  0.54339386  0.01294831  0.59373427     0.08800
H276        H  0.57135948  0.01725564  0.52655231     0.12400
H277        H  0.46894026  0.99896543  0.52078334     0.12300
H278        H  0.47264466  0.99904206  0.44118198     0.12100
H279        H  0.50099290  0.00284139  0.37388866     0.12600
H280        H  0.57504030  0.01705901  0.44757704     0.14600
C281        C  0.55953545  0.01194299  0.04653384    -0.05500
C282        C  0.57496283  0.01924484  0.00852094    -0.05400
C283        C  0.56254943  0.01821907  0.96817948    -0.23500
C284        C  0.53447752  0.00977851  0.96503700     0.18700
C285        C  0.51878767  0.00250461  0.00301920     0.15900
C286        C  0.53133588  0.00366233  0.04336521    -0.18600
C287        C  0.49078408  0.99400525  0.00008764    -0.20400
C288        C  0.47838490  0.99264417  0.95989813    -0.13000
C289        C  0.49366442  0.99980595  0.92167268     0.03700
C290        C  0.52184957  0.00841100  0.92462300    -0.25100
H291        H  0.59662595  0.02595673  0.00983642     0.08800
H292        H  0.57492380  0.02396667  0.93945746     0.12400
H293        H  0.51912978  0.99769661  0.07209593     0.12300
H294        H  0.47846451  0.98829603  0.02888724     0.12100
H295        H  0.45678434  0.98571265  0.95902386     0.12600
H296        H  0.53399100  0.01417617  0.89572199     0.14600
C297        C  0.19364572  0.99062966  0.73352807    -0.05500
C298        C  0.20680775  0.00182274  0.69596417    -0.05400
C299        C  0.23602807  0.00145387  0.68973450    -0.23500
C300        C  0.25283054  0.99013443  0.72112599     0.18700
C301        C  0.23990795  0.97864520  0.75885777     0.15900
C302        C  0.21048425  0.97878317  0.76469717    -0.18600
C303        C  0.25666595  0.96757749  0.79047831    -0.20400
C304        C  0.28589905  0.96847931  0.78533377    -0.13000
C305        C  0.29911431  0.98029154  0.74833391     0.03700
C306        C  0.28231219  0.99064334  0.71587303    -0.25100
H307        H  0.19450454  0.01093927  0.67120766     0.08800
H308        H  0.24549272  0.01033702  0.66055404     0.12400
H309        H  0.20078497  0.97013506  0.79389282     0.12300
H310        H  0.24717548  0.95854531  0.81952019     0.12100
H311        H  0.29815282  0.95991167  0.81059261     0.12600
H312        H  0.29209160  0.99992015  0.68724331     0.14600
loop_ 
_geom_bond_atom_site_label_1 
_geom_bond_atom_site_label_2 
_geom_bond_distance 
_geom_bond_site_symmetry_2 
_ccdc_geom_bond_type 
N1            N2   1.323   1_545  A
N1            C5   1.343       .  A
N1           Cu9   2.073   1_545  S
N2            C3   1.347   1_565  A
N2           Cu8   2.092       .  S
C3            C4   1.391       .  A
C3            H6   1.080   1_545  S
C4            C5   1.388       .  A
C4          C265   1.491       .  S
C5            H7   1.081       .  S
Cu8          N11   2.092       .  S
Cu9          N19   2.072       .  S
Cu10         N12   2.070       .  S
Cu10         N18   2.069       .  S
N11          N12   1.321       .  A
N11          C15   1.350       .  A
N12          C13   1.343       .  A
C13          C14   1.386       .  A
C13          H16   1.082       .  S
C14          C15   1.392       .  A
C14         C305   1.489       .  S
C15          H17   1.082       .  S
N18          N19   1.320       .  A
N18          C22   1.342       .  A
N19          C20   1.346   1_565  A
C20          C21   1.390   1_545  A
C20          H23   1.081       .  S
C21          C22   1.388       .  A
C21         C289   1.487       .  S
C22          H24   1.081       .  S
N25          N26   1.321       .  A
N25          C29   1.344       .  A
N25         Cu33   2.073       .  S
N26          C27   1.345       .  A
N26         Cu32   2.075       .  S
C27          C28   1.387       .  A
C27          H30   1.081       .  S
C28          C29   1.388       .  A
C28         C281   1.485       .  S
C29          H31   1.081       .  S
Cu32         N35   2.076       .  S
Cu33         N43   2.073       .  S
Cu34         N36   2.086       .  S
Cu34         N42   2.085       .  S
N35          N36   1.321       .  A
N35          C39   1.345       .  A
N36          C37   1.348       .  A
C37          C38   1.389       .  A
C37          H40   1.082       .  S
C38          C39   1.387       .  A
C38         C249   1.487       .  S
C39          H41   1.082       .  S
N42          N43   1.321       .  A
N42          C46   1.345       .  A
N43          C44   1.346       .  A
C44          C45   1.389       .  A
C44          H47   1.081       .  S
C45          C46   1.390       .  A
C45         C273   1.490       .  S
C46          H48   1.080       .  S
C49          N50   1.361   1_456  A
C49          N54   1.358       .  A
C49         C209   1.489       .  S
N50          C51   1.363       .  A
C51          N52   1.364   1_655  A
C51         C241   1.488       .  S
N52          C53   1.364   1_554  A
C53          N54   1.358       .  A
C53         C225   1.488       .  S
C55          N56   1.360       .  A
C55          N60   1.362   1_545  A
C55         C257   1.490       .  S
N56          C57   1.359       .  A
C57          N58   1.362       .  A
C57         C193   1.486       .  S
N58          C59   1.364       .  A
C59          N60   1.362   1_545  A
C59         C233   1.489   1_545  S
C61          N62   1.362       .  A
C61          N66   1.359       .  A
C61         C161   1.484       .  S
N62          C63   1.362       .  A
C63          N64   1.362       .  A
C63         C185   1.483       .  S
N64          C65   1.359       .  A
C65          N66   1.356       .  A
C65         C169   1.478       .  S
C67          N68   1.363       .  A
C67          N72   1.361   1_565  A
C67         C297   1.491       .  S
N68          C69   1.362       .  A
C69          N70   1.359       .  A
C69         C217   1.481       .  S
N70          C71   1.360   1_565  A
C71          N72   1.359       .  A
C71         C177   1.483       .  S
N73          N74   1.320       .  A
N73          C77   1.339       .  A
N73         Cu81   2.051       .  S
N74          C75   1.347       .  A
N74         Cu80   2.082       .  S
C75          C76   1.392       .  A
C75          H78   1.081       .  S
C76          C77   1.384       .  A
C76         C121   1.485       .  S
C77          H79   1.081       .  S
Cu80         N83   2.083       .  S
Cu81         N91   2.051       .  S
Cu82         N84   2.075       .  S
Cu82         N90   2.074       .  S
N83          N84   1.323       .  A
N83          C87   1.346       .  A
N84          C85   1.344       .  A
C85          C86   1.386       .  A
C85          H88   1.081       .  S
C86          C87   1.389       .  A
C86         C153   1.487       .  S
C87          H89   1.081       .  S
N90          N91   1.319       .  A
N90          C94   1.345       .  A
N91          C92   1.340       .  A
C92          C93   1.385       .  A
C92          H95   1.081       .  S
C93          C94   1.391       .  A
C93         C137   1.484       .  S
C94          H96   1.081       .  S
N97          N98   1.319       .  A
N97         C101   1.340       .  A
N97        Cu105   2.046   1_554  S
N98          C99   1.346       .  A
N98        Cu104   2.080       .  S
C99         C100   1.392       .  A
C99         H102   1.081       .  S
C100        C101   1.384       .  A
C100        C145   1.483       .  S
C101        H103   1.081       .  S
Cu104       N107   2.081       .  S
Cu105       N115   2.046       .  S
Cu106       N108   2.089       .  S
Cu106       N114   2.088       .  S
N107        N108   1.324   1_554  A
N107        C111   1.345       .  A
N108        C109   1.348       .  A
C109        C110   1.388   1_556  A
C109        H112   1.081       .  S
C110        C111   1.386       .  A
C110        C201   1.486       .  S
C111        H113   1.081       .  S
N114        N115   1.320       .  A
N114        C118   1.348       .  A
N115        C116   1.339       .  A
C116        C117   1.383       .  A
C116        H119   1.081       .  S
C117        C118   1.393       .  A
C117        C129   1.485       .  S
C118        H120   1.081       .  S
C121        C122   1.409       .  A
C121        C126   1.406       .  A
C122        C123   1.395       .  A
C122        H131   1.081       .  S
C123        C124   1.399       .  A
C123        H132   1.083       .  S
C124        C130   1.403       .  A
C124        C125   1.413       .  A
C125        C127   1.399       .  A
C125        C126   1.403       .  A
C126        H133   1.082       .  S
C127        C128   1.395       .  A
C127        H134   1.083       .  S
C128        C129   1.409       .  A
C128        H135   1.081       .  S
C129        C130   1.405       .  A
C130        H136   1.082       .  S
C137        C138   1.408       .  A
C137        C142   1.406       .  A
C138        C139   1.395       .  A
C138        H147   1.081       .  S
C139        C140   1.399       .  A
C139        H148   1.084       .  S
C140        C146   1.402       .  A
C140        C141   1.413       .  A
C141        C143   1.400       .  A
C141        C142   1.403       .  A
C142        H149   1.083       .  S
C143        C144   1.396       .  A
C143        H150   1.084       .  S
C144        C145   1.408       .  A
C144        H151   1.081       .  S
C145        C146   1.405       .  A
C146        H152   1.083       .  S
C153        C154   1.407       .  A
C153        C158   1.407       .  A
C154        C155   1.398       .  A
C154        H163   1.082       .  S
C155        C156   1.402       .  A
C155        H164   1.083       .  S
C156        C162   1.407       .  A
C156        C157   1.413       .  A
C157        C159   1.401       .  A
C157        C158   1.404       .  A
C158        H165   1.082       .  S
C159        C160   1.396       .  A
C159        H166   1.083       .  S
C160        C161   1.407       .  A
C160        H167   1.083       .  S
C161        C162   1.407       .  A
C162        H168   1.083       .  S
C169        C170   1.405       .  A
C169        C174   1.405       .  A
C170        C171   1.398       .  A
C170        H179   1.083       .  S
C171        C172   1.402       .  A
C171        H180   1.084       .  S
C172        C178   1.406       .  A
C172        C173   1.415       .  A
C173        C175   1.402       .  A
C173        C174   1.407       .  A
C174        H181   1.084       .  S
C175        C176   1.399       .  A
C175        H182   1.083       .  S
C176        C177   1.406       .  A
C176        H183   1.083   1_545  S
C177        C178   1.407       .  A
C178        H184   1.084       .  S
C185        C186   1.405       .  A
C185        C190   1.407   1_455  A
C186        C187   1.398       .  A
C186        H195   1.083       .  S
C187        C188   1.402   1_455  A
C187        H196   1.084       .  S
C188        C194   1.408       .  A
C188        C189   1.415       .  A
C189        C191   1.403       .  A
C189        C190   1.410       .  A
C190        H197   1.084       .  S
C191        C192   1.400       .  A
C191        H198   1.084       .  S
C192        C193   1.407       .  A
C192        H199   1.083       .  S
C193        C194   1.407       .  A
C194        H200   1.084       .  S
C201        C202   1.407   1_455  A
C201        C206   1.407   1_554  A
C202        C203   1.399       .  A
C202        H211   1.082       .  S
C203        C204   1.402       .  A
C203        H212   1.084       .  S
C204        C210   1.408       .  A
C204        C205   1.414   1_654  A
C205        C207   1.401       .  A
C205        C206   1.407       .  A
C206        H213   1.083       .  S
C207        C208   1.397       .  A
C207        H214   1.084       .  S
C208        C209   1.409       .  A
C208        H215   1.083       .  S
C209        C210   1.409   1_456  A
C210        H216   1.084       .  S
C217        C218   1.404       .  A
C217        C222   1.407       .  A
C218        C219   1.400       .  A
C218        H227   1.083       .  S
C219        C220   1.404       .  A
C219        H228   1.084       .  S
C220        C226   1.407       .  A
C220        C221   1.413       .  A
C221        C223   1.404       .  A
C221        C222   1.408       .  A
C222        H229   1.084       .  S
C223        C224   1.401       .  A
C223        H230   1.084       .  S
C224        C225   1.406       .  A
C224        H231   1.083       .  S
C225        C226   1.411       .  A
C226        H232   1.084       .  S
C233        C234   1.406       .  A
C233        C238   1.409       .  A
C234        C235   1.401       .  A
C234        H243   1.083   1_565  S
C235        C236   1.403       .  A
C235        H244   1.084   1_655  S
C236        C242   1.410       .  A
C236        C237   1.414       .  A
C237        C239   1.403       .  A
C237        C238   1.410       .  A
C238        H245   1.084       .  S
C239        C240   1.401       .  A
C239        H246   1.084       .  S
C240        C241   1.407       .  A
C240        H247   1.083       .  S
C241        C242   1.408       .  A
C242        H248   1.084   1_655  S
C249        C250   1.407   1_545  A
C249        C254   1.408       .  A
C250        C251   1.398       .  A
C250        H259   1.083       .  S
C251        C252   1.402   1_565  A
C251        H260   1.083       .  S
C252        C258   1.408       .  A
C252        C253   1.414       .  A
C253        C255   1.402       .  A
C253        C254   1.408       .  A
C254        H261   1.084       .  S
C255        C256   1.399       .  A
C255        H262   1.084       .  S
C256        C257   1.409       .  A
C256        H263   1.083       .  S
C257        C258   1.408       .  A
C258        H264   1.084   1_545  S
C265        C266   1.408       .  A
C265        C270   1.410       .  A
C266        C267   1.396       .  A
C266        H275   1.080       .  S
C267        C268   1.400       .  A
C267        H276   1.084       .  S
C268        C274   1.404       .  A
C268        C269   1.412       .  A
C269        C271   1.402       .  A
C269        C270   1.407       .  A
C270        H277   1.083   1_545  S
C271        C272   1.399       .  A
C271        H278   1.084   1_545  S
C272        C273   1.409       .  A
C272        H279   1.081       .  S
C273        C274   1.408       .  A
C274        H280   1.083       .  S
C281        C282   1.407       .  A
C281        C286   1.406       .  A
C282        C283   1.399   1_554  A
C282        H291   1.082       .  S
C283        C284   1.402       .  A
C283        H292   1.083       .  S
C284        C290   1.406       .  A
C284        C285   1.412   1_556  A
C285        C287   1.399   1_545  A
C285        C286   1.402       .  A
C286        H293   1.082   1_545  S
C287        C288   1.395   1_554  A
C287        H294   1.083       .  S
C288        C289   1.407       .  A
C288        H295   1.081       .  S
C289        C290   1.409   1_565  A
C290        H296   1.082       .  S
C297        C298   1.409   1_565  A
C297        C302   1.408       .  A
C298        C299   1.400       .  A
C298        H307   1.083       .  S
C299        C300   1.402   1_545  A
C299        H308   1.084       .  S
C300        C306   1.409       .  A
C300        C301   1.414       .  A
C301        C303   1.401       .  A
C301        C302   1.408       .  A
C302        H309   1.084       .  S
C303        C304   1.398       .  A
C303        H310   1.083       .  S
C304        C305   1.408       .  A
C304        H311   1.082       .  S
C305        C306   1.408       .  A
C306        H312   1.083       .  S
