geometry optimzed in LAMMPS
_audit_creation_date              2020-11-30 
_audit_creation_method            'lammps2cif' 
_symmetry_space_group_name_H-M    'P1' 
_symmetry_Int_Tables_number       1 
_symmetry_cell_setting            triclinic 
loop_ 
_symmetry_equiv_pos_as_xyz 
  x,y,z 
_cell_length_a                    25.47037242990076 
_cell_length_b                    25.45124691313076 
_cell_length_c                    65.42974009208068 
_cell_angle_alpha                 91.14666104150724 
_cell_angle_beta                  88.93557683247347 
_cell_angle_gamma                 89.91921342216023 
loop_ 
_atom_site_label 
_atom_site_type_symbol 
_atom_site_fract_x 
_atom_site_fract_y 
_atom_site_fract_z 
_atom_site_charge 
O1          O  0.05267581  0.05368494  0.47843978    -0.70710
O2          O  0.05000675  0.94566573  0.52222288    -0.71690
O3          O  0.05220985  0.94283577  0.47861644    -0.60310
O4          O  0.05049369  0.05648473  0.52204440    -0.68720
O5          O  0.96321628  0.05703951  0.52204674    -0.68270
O6          O  0.96493500  0.94326969  0.47854675    -0.59530
O7          O  0.96271738  0.94607363  0.52220736    -0.72030
O8          O  0.96538874  0.05420653  0.47838233    -0.70810
Cu9        Cu  0.05440101  0.99965068  0.50033204     1.04560
Cu10       Cu  0.96097094  0.00016474  0.50029363     1.04330
C11         C  0.00948358  0.07012002  0.47131405     0.95490
C12         C  0.00596694  0.92969982  0.52931425     0.94630
C13         C  0.00889417  0.92596580  0.47153114     0.86770
C14         C  0.00661190  0.07384318  0.52909893     0.93050
C15         C  0.01776409  0.99759380  0.75037076    -0.00250
C16         C  0.02488036  0.00222036  0.25016202    -0.00250
N17         N  0.01682861  0.78228381  0.39309732    -0.25050
N18         N  0.01673125  0.82983619  0.38535579    -0.32910
C19         C  0.01454819  0.86572728  0.40067659     0.03290
C20         C  0.01319051  0.83942871  0.41888744     0.09310
C21         C  0.01470528  0.78656928  0.41366152    -0.03790
H22         H  0.01404570  0.90782190  0.39867444     0.09980
H23         H  0.01435461  0.75379581  0.42394466     0.11180
Cu24       Cu  0.01949984  0.84354505  0.35431265     0.44170
Cu25       Cu  0.01986111  0.71524855  0.37462691     0.41990
Cu26       Cu  0.02422145  0.73326985  0.31866464     0.43880
N27         N  0.02170859  0.85119863  0.32289752    -0.32440
N28         N  0.02340686  0.81124350  0.30965125    -0.26700
C29         C  0.02426599  0.83020027  0.29054808    -0.02800
C30         C  0.02301472  0.88446071  0.29206079     0.09420
C31         C  0.02144005  0.89645238  0.31268043     0.03220
H32         H  0.02565319  0.80631691  0.27668081     0.10870
H33         H  0.02014273  0.93520950  0.31978029     0.09950
N34         N  0.02416881  0.66073403  0.33280927    -0.33890
N35         N  0.02264262  0.65492968  0.35286647    -0.26070
C36         C  0.02284818  0.60351910  0.35697325    -0.01310
C37         C  0.02457385  0.57522501  0.33864780     0.07300
C38         C  0.02537125  0.61281915  0.32366111     0.05390
H39         H  0.02162622  0.58838872  0.37229258     0.10500
H40         H  0.02660074  0.60586564  0.30729133     0.09330
O41         O  0.96608321  0.95565247  0.02179994    -0.70710
O42         O  0.07932784  0.95513812  0.97823569    -0.71690
O43         O  0.07694574  0.95554751  0.02182130    -0.60310
O44         O  0.96843472  0.95524792  0.97814147    -0.68720
O45         O  0.96839892  0.04261899  0.97873057    -0.68270
O46         O  0.07682781  0.04293057  0.02236190    -0.59530
O47         O  0.07919010  0.04250641  0.97878067    -0.72030
O48         O  0.96602206  0.04300949  0.02231705    -0.70810
Cu49       Cu  0.02271533  0.95229999  0.99998000     1.04560
Cu50       Cu  0.02262038  0.04582727  0.00056682     1.04330
C51         C  0.94897474  0.99944275  0.02910353     0.95490
C52         C  0.09626631  0.99875021  0.97145293     0.94630
C53         C  0.09311927  0.99931134  0.02915983     0.86770
C54         C  0.95210453  0.99891815  0.97137949     0.93050
N55         N  0.80440462  0.00141269  0.10727395    -0.25050
N56         N  0.85187455  0.00141970  0.11508446    -0.32910
C57         C  0.88786027  0.00130065  0.09982064     0.03290
C58         C  0.86175448  0.00119213  0.08156089     0.09310
C59         C  0.80886415  0.00128044  0.08670633    -0.03790
H60         H  0.92990628  0.00104662  0.10189409     0.09980
H61         H  0.77619799  0.00101166  0.07636563     0.11180
Cu62       Cu  0.86544624  0.00096990  0.14614246     0.44170
Cu63       Cu  0.73733406  0.00097772  0.12572762     0.41990
Cu64       Cu  0.75554939  0.99956415  0.18177547     0.43880
N65         N  0.87333166  0.00038913  0.17754695    -0.32440
N66         N  0.83348608  0.99987545  0.19080209    -0.26700
C67         C  0.85254956  0.99973133  0.20989435    -0.02800
C68         C  0.90677641  0.00014936  0.20836454     0.09420
C69         C  0.91862250  0.00057467  0.18774553     0.03220
H70         H  0.82876371  0.99942473  0.22376559     0.10870
H71         H  0.95731038  0.00106530  0.18063437     0.09950
N72         N  0.68307596  0.99969626  0.16759673    -0.33890
N73         N  0.67716947  0.00024487  0.14754579    -0.26070
C74         C  0.62575761  0.00031612  0.14346769    -0.01310
C75         C  0.59759663  0.99979796  0.16180031     0.07300
C76         C  0.63525448  0.99940040  0.17676061     0.05390
H77         H  0.61053191  0.00075752  0.12816212     0.10500
H78         H  0.62841096  0.99899380  0.19312675     0.09330
N79         N  0.01762546  0.21375576  0.39529374    -0.25050
N80         N  0.01748810  0.16698031  0.38624317    -0.32910
C81         C  0.01537467  0.12987667  0.40055213     0.03290
C82         C  0.01411357  0.15486951  0.41946291     0.09310
C83         C  0.01560063  0.20800895  0.41569149    -0.03790
H84         H  0.01482306  0.08798546  0.39740579     0.09980
H85         H  0.01526808  0.23999303  0.42683795     0.11180
Cu86       Cu  0.02007502  0.15813428  0.35483783     0.44170
Cu87       Cu  0.02049049  0.28130315  0.37851205     0.41990
Cu88       Cu  0.02400540  0.27393615  0.32204265     0.43880
N89         N  0.02202079  0.15519485  0.32330501    -0.32440
N90         N  0.02339099  0.19612604  0.31111677    -0.26700
C91         C  0.02413052  0.17829419  0.29153642    -0.02780
C92         C  0.02313847  0.12393097  0.29172776     0.09420
C93         C  0.02184892  0.11071751  0.31197535     0.03220
H94         H  0.02526953  0.20296531  0.27825870     0.10870
H95         H  0.02081058  0.07154298  0.31810416     0.09950
N96         N  0.02394547  0.34391118  0.33937609    -0.33890
N97         N  0.02277767  0.34505823  0.35961829    -0.26070
C98         C  0.02290734  0.39501604  0.36639452    -0.01310
C99         C  0.02417857  0.42737905  0.34982367     0.07300
C100        C  0.02482532  0.39388563  0.33279592     0.05390
H101        H  0.02195064  0.40693008  0.38236855     0.10500
H102        H  0.02573485  0.40480064  0.31690017     0.09330
N103        N  0.23641281  0.00011732  0.10523592    -0.25050
N104        N  0.18964283  0.99973182  0.11422702    -0.32910
C105        C  0.15261442  0.99951701  0.09987535     0.03290
C106        C  0.17768995  0.99978025  0.08100859     0.09310
C107        C  0.23076328  0.00015509  0.08483818    -0.03790
H108        H  0.11073646  0.99920398  0.10296387     0.09980
H109        H  0.26276919  0.00043466  0.07373501     0.11180
Cu110      Cu  0.18073250  0.99961355  0.14559485     0.44170
Cu111      Cu  0.30382102  0.00055272  0.12205397     0.41990
Cu112      Cu  0.29645463  0.00003733  0.17845780     0.43880
N113        N  0.17776919  0.99973492  0.17709613    -0.32440
N114        N  0.21865027  0.99990533  0.18931923    -0.26700
C115        C  0.20076740  0.00005622  0.20887877    -0.02800
C116        C  0.14643508  0.99994488  0.20862842     0.09420
C117        C  0.13328687  0.99976630  0.18837378     0.03220
H118        H  0.22537933  0.00030314  0.22218244     0.10870
H119        H  0.09415568  0.99974561  0.18220366     0.09950
N120        N  0.36641779  0.00027009  0.16117069    -0.33890
N121        N  0.36750952  0.00054588  0.14093690    -0.26070
C122        C  0.41738974  0.00065519  0.13415738    -0.01310
C123        C  0.44978949  0.00041094  0.15071755     0.07300
C124        C  0.41638972  0.00017245  0.16774597     0.05390
H125        H  0.42921911  0.00083994  0.11818609     0.10500
H126        H  0.42736763  0.99994299  0.18363521     0.09330
N127        N  0.80692738  0.00085684  0.89570241    -0.25050
N128        N  0.85359340  0.00112615  0.88661834    -0.32910
C129        C  0.89083718  0.00092424  0.90088694     0.03290
C130        C  0.86609819  0.00048380  0.91981763     0.09310
C131        C  0.81291622  0.00047005  0.91609605    -0.03790
H132        H  0.93267130  0.00084813  0.89769575     0.09980
H133        H  0.78107794  0.99997539  0.92726965     0.11180
Cu134      Cu  0.86225019  0.00110350  0.85521233     0.44170
Cu135      Cu  0.73926329  0.00047822  0.87890199     0.41990
Cu136      Cu  0.74668534  0.00001524  0.82235314     0.43880
N137        N  0.86530630  0.00069005  0.82368128    -0.32440
N138        N  0.82441917  0.00025581  0.81146177    -0.26700
C139        C  0.84225920  0.99992996  0.79189557    -0.02800
C140        C  0.89659151  0.00020658  0.79212698     0.09420
C141        C  0.90977192  0.00066049  0.81238593     0.03220
H142        H  0.81761650  0.99944042  0.77859948     0.10870
H143        H  0.94891496  0.00084770  0.81854451     0.09950
N144        N  0.67679112  0.99992180  0.83965476    -0.33890
N145        N  0.67558189  0.00007703  0.85989710    -0.26070
C146        C  0.62561993  0.99993744  0.86660532    -0.01310
C147        C  0.59334278  0.99969054  0.84999263     0.07300
C148        C  0.62688307  0.99968652  0.83301258     0.05390
H149        H  0.61364119  0.00000658  0.88256244     0.10500
H150        H  0.61604657  0.99950675  0.81710408     0.09330
N151        N  0.00793239  0.78613442  0.60534216    -0.25050
N152        N  0.00822731  0.83292726  0.61437783    -0.32910
C153        C  0.00696717  0.87002696  0.60007304     0.03290
C154        C  0.00579676  0.84501436  0.58118232     0.09310
C155        C  0.00647889  0.79186681  0.58496094    -0.03790
H156        H  0.00716686  0.91193002  0.60320367     0.09980
H157        H  0.00620088  0.75986695  0.57382597     0.11180
Cu158      Cu  0.01091780  0.84180471  0.64574954     0.44170
Cu159      Cu  0.01001644  0.71857369  0.62210437     0.41990
Cu160      Cu  0.01463994  0.72594851  0.67849111     0.43880
N161        N  0.01403938  0.84472589  0.67723923    -0.32440
N162        N  0.01537522  0.80377673  0.68940275    -0.26700
C163        C  0.01720384  0.82159484  0.70895508    -0.02800
C164        C  0.01702883  0.87596915  0.70877434     0.09420
C165        C  0.01498907  0.88920213  0.68855984     0.03220
H166        H  0.01849131  0.79690559  0.72220929     0.10870
H167        H  0.01416262  0.92839048  0.68244967     0.09950
N168        N  0.01360625  0.65594478  0.66118435    -0.33890
N169        N  0.01201742  0.65479653  0.64096662    -0.26070
C170        C  0.01176153  0.60483460  0.63419603    -0.01310
C171        C  0.01322637  0.57246645  0.65074523     0.07300
C172        C  0.01438334  0.60596514  0.66775437     0.05390
H173        H  0.01053411  0.59292213  0.61824084     0.10500
H174        H  0.01567829  0.59505024  0.68363062     0.09330
N175        N  0.00972569  0.21747318  0.60751764    -0.25050
N176        N  0.01020001  0.16991265  0.61524967    -0.32910
C177        C  0.00889792  0.13402010  0.59993949     0.03290
C178        C  0.00752045  0.16032393  0.58174716     0.09310
C179        C  0.00811356  0.21318906  0.58697307    -0.03790
H180        H  0.00910061  0.09191981  0.60193336     0.09980
H181        H  0.00756026  0.24596963  0.57670037     0.11180
Cu182      Cu  0.01284236  0.15618768  0.64626443     0.44170
Cu183      Cu  0.01149622  0.28453868  0.62596239     0.41990
Cu184      Cu  0.01553269  0.26652830  0.68186189     0.43880
N185        N  0.01543892  0.14856386  0.67765201    -0.32440
N186        N  0.01637862  0.18854719  0.69087645    -0.26700
C187        C  0.01783409  0.16961857  0.70996328    -0.02800
C188        C  0.01784107  0.11534354  0.70846637     0.09420
C189        C  0.01627875  0.10331839  0.68786997     0.03220
H190        H  0.01871170  0.19353175  0.72381189     0.10870
H191        H  0.01566287  0.06454147  0.68078928     0.09950
N192        N  0.01459539  0.33908153  0.66773407    -0.33890
N193        N  0.01320458  0.34488650  0.64769624    -0.26070
C194        C  0.01296496  0.39630168  0.64359354    -0.01310
C195        C  0.01425974  0.42459872  0.66190147     0.07300
C196        C  0.01526881  0.38699922  0.67687322     0.05390
H197        H  0.01187348  0.41143350  0.62828900     0.10500
H198        H  0.01639034  0.39395082  0.69322707     0.09330
N199        N  0.23895391  0.99800633  0.89292648    -0.25050
N200        N  0.19138278  0.99790984  0.88521137    -0.32910
C201        C  0.15562455  0.99801170  0.90055421     0.03290
C202        C  0.18206708  0.99818299  0.91874138     0.09310
C203        C  0.23483890  0.99817402  0.91348764    -0.03790
H204        H  0.11353949  0.99803598  0.89858298     0.09980
H205        H  0.26767184  0.99834633  0.92374783     0.11180
Cu206      Cu  0.17753670  0.99794188  0.85418436     0.44170
Cu207      Cu  0.30579486  0.99815269  0.87446381     0.41990
Cu208      Cu  0.28761751  0.99882019  0.81853135     0.43880
N209        N  0.16973853  0.99844037  0.82279088    -0.32440
N210        N  0.20958670  0.99877507  0.80953175    -0.26700
C211        C  0.19048482  0.99907098  0.79044483    -0.02800
C212        C  0.13625124  0.99894040  0.79198761     0.09420
C213        C  0.12443362  0.99852127  0.81260576     0.03220
H214        H  0.21424770  0.99933001  0.77656757     0.10870
H215        H  0.08575280  0.99826394  0.81972792     0.09950
N216        N  0.36019334  0.99884165  0.83269562    -0.33890
N217        N  0.36598844  0.99859001  0.85275095    -0.26070
C218        C  0.41733995  0.99871445  0.85690468    -0.01310
C219        C  0.44564805  0.99906424  0.83861259     0.07300
C220        C  0.40809999  0.99913002  0.82359225     0.05390
H221        H  0.43241157  0.99856037  0.87223728     0.10500
H222        H  0.41508256  0.99938600  0.80723297     0.09330
C223        C  0.01442836  0.48240849  0.66501690    -0.14200
C224        C  0.01332405  0.51468704  0.64906570    -0.29370
H225        H  0.01540609  0.49838466  0.68051440     0.14830
H226        H  0.01233709  0.49839085  0.63364233     0.15400
C227        C  0.53559995  0.99943901  0.85158473    -0.14200
C228        C  0.50342755  0.99932621  0.83557171    -0.29370
H229        H  0.51924376  0.99936901  0.86699869     0.14830
H230        H  0.51946725  0.99944784  0.82008395     0.15400
C231        C  0.53985849  0.99979511  0.16495346    -0.14200
C232        C  0.50750316  0.00039518  0.14901426    -0.29370
H233        H  0.52400083  0.99930549  0.18046511     0.14830
H234        H  0.52368461  0.00085945  0.13357671     0.15400
C235        C  0.91673433  0.99898004  0.95459199    -0.11040
C236        C  0.89133893  0.99957356  0.93924336    -0.12600
C237        C  0.88597706  0.00039794  0.06153298    -0.11040
C238        C  0.91199738  0.99977558  0.04593673    -0.12600
C239        C  0.13288463  0.99858738  0.95453730    -0.11040
C240        C  0.15835159  0.99843054  0.93882650    -0.12600
C241        C  0.12810654  0.99949754  0.04603347    -0.11040
C242        C  0.15294297  0.99965604  0.06150822    -0.12600
C243        C  0.02429129  0.48515294  0.35150089    -0.14200
C244        C  0.02502226  0.51741969  0.33553138    -0.29370
H245        H  0.02356433  0.50145380  0.36693856     0.14830
H246        H  0.02582009  0.50143748  0.32001994     0.15400
C247        C  0.02380573  0.95664790  0.26358248    -0.11040
C248        C  0.02335692  0.92176650  0.27583101    -0.12600
C249        C  0.97917657  0.00102942  0.23679074    -0.11040
C250        C  0.94418566  0.00046147  0.22457615    -0.12600
C251        C  0.02386232  0.05047552  0.26279832    -0.11040
C252        C  0.02346313  0.08701069  0.27483870    -0.12600
C253        C  0.07297648  0.00095561  0.23748916    -0.11040
C254        C  0.10948335  0.00034155  0.22547204    -0.12600
C255        C  0.96986234  0.99895272  0.76316959    -0.11040
C256        C  0.93349131  0.99966523  0.77525584    -0.12600
C257        C  0.09879235  0.99894114  0.77579471    -0.11040
C258        C  0.06368737  0.99860498  0.76362960    -0.12600
C259        C  0.01842456  0.94936848  0.73771164    -0.11040
C260        C  0.01815575  0.91287036  0.72565665    -0.12600
C261        C  0.01868881  0.04319780  0.73695841    -0.11040
C262        C  0.01863154  0.07806258  0.72470101    -0.12600
C263        C  0.01109590  0.86339227  0.43896033    -0.11040
C264        C  0.00976061  0.88911695  0.45463904    -0.12600
C265        C  0.00511681  0.86989854  0.56169973    -0.11040
C266        C  0.00513450  0.89479371  0.54623309    -0.12600
C267        C  0.01202326  0.12996627  0.43894400    -0.11040
C268        C  0.01060628  0.10504614  0.45440335    -0.12600
C269        C  0.00612791  0.11067123  0.54599949    -0.11040
C270        C  0.00645530  0.13637033  0.56168132    -0.12600
loop_ 
_geom_bond_atom_site_label_1 
_geom_bond_atom_site_label_2 
_geom_bond_distance 
_geom_bond_site_symmetry_2 
_ccdc_geom_bond_type 
O1           Cu9   2.006   1_545  S
O1           C11   1.276       .  A
O2           Cu9   2.006       .  S
O2           C12   1.276       .  A
O3           Cu9   2.008       .  S
O3           C13   1.276       .  A
O4           Cu9   2.008   1_545  S
O4           C14   1.276       .  A
O5          Cu10   2.011       .  S
O5           C14   1.277   1_655  A
O6          Cu10   2.011   1_565  S
O6           C13   1.277   1_655  A
O7          Cu10   2.009   1_565  S
O7           C12   1.276   1_655  A
O8          Cu10   2.008       .  S
O8           C11   1.276   1_655  A
Cu9         Cu10   2.380   1_465  S
C11         C268   1.433       .  S
C12         C266   1.433       .  S
C13         C264   1.435       .  S
C14         C269   1.435       .  S
C15         C255   1.467   1_455  S
C15         C258   1.469       .  S
C15         C259   1.467       .  S
C15         C261   1.469   1_565  S
C16         C247   1.469   1_545  S
C16         C249   1.469   1_455  S
C16         C251   1.467       .  S
C16         C253   1.466       .  S
N17          N18   1.321       .  A
N17          C21   1.348       .  A
N17         Cu25   2.071       .  S
N18          C19   1.343       .  A
N18         Cu24   2.068       .  S
C19          C20   1.378       .  A
C19          H22   1.082       .  S
C20         C263   1.437       .  S
C20          C21   1.382       .  A
C21          H23   1.082       .  S
Cu24         N27   2.068       .  S
Cu25         N35   2.073       .  S
Cu26         N28   2.082       .  S
Cu26         N34   2.082       .  S
N27          N28   1.323       .  A
N27          C31   1.343       .  A
N28          C29   1.349       .  A
C29          C30   1.383       .  A
C29          H32   1.082       .  S
C30         C248   1.438       .  S
C30          C31   1.377       .  A
C31          H33   1.082       .  S
N34          N35   1.323       .  A
N34          C38   1.348       .  A
N35          C36   1.341       .  A
C36          C37   1.386       .  A
C36          H39   1.081       .  S
C37          C38   1.384       .  A
C37         C244   1.481       .  S
C38          H40   1.082       .  S
O41         Cu49   2.011   1_654  S
O41          C51   1.277       .  A
O42         Cu49   2.009       .  S
O42          C52   1.276       .  A
O43         Cu49   2.006   1_554  S
O43          C53   1.276       .  A
O44         Cu49   2.009   1_655  S
O44          C54   1.276       .  A
O45         Cu50   2.006   1_656  S
O45          C54   1.276   1_545  A
O46         Cu50   2.006       .  S
O46          C53   1.276   1_545  A
O47         Cu50   2.008   1_556  S
O47          C52   1.276   1_545  A
O48         Cu50   2.009   1_655  S
O48          C51   1.276   1_545  A
Cu49        Cu50   2.380   1_566  S
C51         C238   1.436       .  S
C52         C239   1.434       .  S
C53         C241   1.432       .  S
C54         C235   1.434       .  S
N55          N56   1.321       .  A
N55          C59   1.348       .  A
N55         Cu63   2.074       .  S
N56          C57   1.343       .  A
N56         Cu62   2.068       .  S
C57          C58   1.378       .  A
C57          H60   1.082       .  S
C58         C237   1.438       .  S
C58          C59   1.382       .  A
C59          H61   1.082       .  S
Cu62         N65   2.069       .  S
Cu63         N73   2.075       .  S
Cu64         N66   2.082       .  S
Cu64         N72   2.081       .  S
N65          N66   1.323   1_545  A
N65          C69   1.343       .  A
N66          C67   1.349       .  A
C67          C68   1.383   1_565  A
C67          H70   1.082       .  S
C68         C250   1.439       .  S
C68          C69   1.377       .  A
C69          H71   1.082       .  S
N72          N73   1.324   1_565  A
N72          C76   1.348       .  A
N73          C74   1.341       .  A
C74          C75   1.386   1_545  A
C74          H77   1.081       .  S
C75          C76   1.383       .  A
C75         C231   1.481       .  S
C76          H78   1.082       .  S
N79          N80   1.319       .  A
N79          C83   1.346       .  A
N79         Cu87   2.059       .  S
N80          C81   1.343       .  A
N80         Cu86   2.062       .  S
C81          C82   1.380       .  A
C81          H84   1.082       .  S
C82         C267   1.435       .  S
C82          C83   1.380       .  A
C83          H85   1.082       .  S
Cu86         N89   2.063       .  S
Cu87         N97   2.060       .  S
Cu88         N90   2.092       .  S
Cu88         N96   2.092       .  S
N89          N90   1.325       .  A
N89          C93   1.341       .  A
N90          C91   1.350       .  A
C91          C92   1.384       .  A
C91          H94   1.082       .  S
C92         C252   1.436       .  S
C92          C93   1.373       .  A
C93          H95   1.082       .  S
N96          N97   1.324       .  A
N96         C100   1.351       .  A
N97          C98   1.338       .  A
C98          C99   1.375       .  A
C98         H101   1.082       .  S
C99         C100   1.389       .  A
C99         C243   1.472       .  S
C100        H102   1.082       .  S
N103        N104   1.319   1_545  A
N103        C107   1.345       .  A
N103       Cu111   2.056       .  S
N104        C105   1.343       .  A
N104       Cu110   2.061       .  S
C105        C106   1.379       .  A
C105        H108   1.082       .  S
C106        C242   1.434       .  S
C106        C107   1.379   1_565  A
C107        H109   1.082       .  S
Cu110       N113   2.061       .  S
Cu111       N121   2.057       .  S
Cu112       N114   2.093   1_545  S
Cu112       N120   2.093       .  S
N113        N114   1.325       .  A
N113        C117   1.341       .  A
N114        C115   1.350   1_565  A
C115        C116   1.384   1_545  A
C115        H118   1.082       .  S
C116        C254   1.436   1_565  S
C116        C117   1.373       .  A
C117        H119   1.082       .  S
N120        N121   1.324       .  A
N120        C124   1.351       .  A
N121        C122   1.338       .  A
C122        C123   1.374       .  A
C122        H125   1.082       .  S
C123        C124   1.389       .  A
C123        C232   1.472       .  S
C124        H126   1.082   1_545  S
N127        N128   1.319       .  A
N127        C131   1.346       .  A
N127       Cu135   2.061       .  S
N128        C129   1.343       .  A
N128       Cu134   2.063       .  S
C129        C130   1.379       .  A
C129        H132   1.082       .  S
C130        C236   1.436   1_545  S
C130        C131   1.381       .  A
C131        H133   1.082   1_545  S
Cu134       N137   2.063       .  S
Cu135       N145   2.062       .  S
Cu136       N138   2.092       .  S
Cu136       N144   2.092   1_545  S
N137        N138   1.325       .  A
N137        C141   1.341       .  A
N138        C139   1.350   1_545  A
C139        C140   1.384   1_565  A
C139        H142   1.082       .  S
C140        C256   1.436   1_545  S
C140        C141   1.373       .  A
C141        H143   1.082       .  S
N144        N145   1.324   1_565  A
N144        C148   1.351       .  A
N145        C146   1.338   1_545  A
C146        C147   1.375       .  A
C146        H149   1.082   1_565  S
C147        C148   1.389       .  A
C147        C227   1.473       .  S
C148        H150   1.082       .  S
N151        N152   1.319       .  A
N151        C155   1.346       .  A
N151       Cu159   2.059       .  S
N152        C153   1.344       .  A
N152       Cu158   2.063       .  S
C153        C154   1.380       .  A
C153        H156   1.082       .  S
C154        C265   1.435       .  S
C154        C155   1.380       .  A
C155        H157   1.082       .  S
Cu158       N161   2.063       .  S
Cu159       N169   2.060       .  S
Cu160       N162   2.092       .  S
Cu160       N168   2.092       .  S
N161        N162   1.325       .  A
N161        C165   1.341       .  A
N162        C163   1.350       .  A
C163        C164   1.384       .  A
C163        H166   1.082       .  S
C164        C260   1.436       .  S
C164        C165   1.373       .  A
C165        H167   1.082       .  S
N168        N169   1.324       .  A
N168        C172   1.351       .  A
N169        C170   1.338       .  A
C170        C171   1.375       .  A
C170        H173   1.082       .  S
C171        C172   1.389       .  A
C171        C224   1.472       .  S
C172        H174   1.082       .  S
N175        N176   1.321       .  A
N175        C179   1.348       .  A
N175       Cu183   2.072       .  S
N176        C177   1.343       .  A
N176       Cu182   2.068       .  S
C177        C178   1.378       .  A
C177        H180   1.082       .  S
C178        C270   1.437       .  S
C178        C179   1.382       .  A
C179        H181   1.082       .  S
Cu182       N185   2.069       .  S
Cu183       N193   2.073       .  S
Cu184       N186   2.082       .  S
Cu184       N192   2.082       .  S
N185        N186   1.323       .  A
N185        C189   1.343       .  A
N186        C187   1.349       .  A
C187        C188   1.383       .  A
C187        H190   1.082       .  S
C188        C262   1.439       .  S
C188        C189   1.377       .  A
C189        H191   1.082       .  S
N192        N193   1.323       .  A
N192        C196   1.348       .  A
N193        C194   1.341       .  A
C194        C195   1.386       .  A
C194        H197   1.081       .  S
C195        C196   1.384       .  A
C195        C223   1.481       .  S
C196        H198   1.082       .  S
N199        N200   1.321       .  A
N199        C203   1.347       .  A
N199       Cu207   2.069       .  S
N200        C201   1.343       .  A
N200       Cu206   2.067       .  S
C201        C202   1.378       .  A
C201        H204   1.082       .  S
C202        C240   1.436       .  S
C202        C203   1.381       .  A
C203        H205   1.082       .  S
Cu206       N209   2.068       .  S
Cu207       N217   2.071       .  S
Cu208       N210   2.083       .  S
Cu208       N216   2.083       .  S
N209        N210   1.323       .  A
N209        C213   1.343       .  A
N210        C211   1.349       .  A
C211        C212   1.383       .  A
C211        H214   1.082       .  S
C212        C257   1.439       .  S
C212        C213   1.377       .  A
C213        H215   1.082       .  S
N216        N217   1.323       .  A
N216        C220   1.348       .  A
N217        C218   1.341       .  A
C218        C219   1.386       .  A
C218        H221   1.081       .  S
C219        C220   1.384       .  A
C219        C228   1.481       .  S
C220        H222   1.082       .  S
C223        C224   1.342       .  D
C223        H225   1.086       .  S
C224        H226   1.084       .  S
C227        C228   1.342       .  D
C227        H229   1.084       .  S
C228        H230   1.086       .  S
C231        C232   1.341   1_565  D
C231        H233   1.086       .  S
C232        H234   1.084       .  S
C235        C236   1.205       .  T
C237        C238   1.206   1_545  T
C239        C240   1.205       .  T
C241        C242   1.204       .  T
C243        C244   1.342       .  D
C243        H245   1.084       .  S
C244        H246   1.086       .  S
C247        C248   1.208       .  T
C249        C250   1.208       .  T
C251        C252   1.207       .  T
C253        C254   1.206       .  T
C255        C256   1.207       .  T
C257        C258   1.208       .  T
C259        C260   1.207       .  T
C261        C262   1.208       .  T
C263        C264   1.206       .  T
C265        C266   1.205       .  T
C267        C268   1.205       .  T
C269        C270   1.206       .  T
