geometry optimzed in LAMMPS
_audit_creation_date              2020-11-30 
_audit_creation_method            'lammps2cif' 
_symmetry_space_group_name_H-M    'P1' 
_symmetry_Int_Tables_number       1 
_symmetry_cell_setting            triclinic 
loop_ 
_symmetry_equiv_pos_as_xyz 
  x,y,z 
_cell_length_a                    25.15355750023834 
_cell_length_b                    25.192931524582995 
_cell_length_c                    25.18800432876748 
_cell_angle_alpha                 89.05243374261852 
_cell_angle_beta                  89.1333828443698 
_cell_angle_gamma                 88.87083606648682 
loop_ 
_atom_site_label 
_atom_site_type_symbol 
_atom_site_fract_x 
_atom_site_fract_y 
_atom_site_fract_z 
_atom_site_charge 
C1          C  0.49187346  0.73552707  0.03130834     0.03700
C2          C  0.54139852  0.70715191  0.02693037    -0.12450
C3          C  0.54180677  0.65619054  0.00563180     0.01200
C4          C  0.49441918  0.63939233  0.98437081    -0.10970
C5          C  0.44571372  0.65581933  0.00592288     0.03690
C6          C  0.44374225  0.70654207  0.02812909    -0.10400
H7          H  0.57870457  0.72489264  0.03688408     0.09290
H8          H  0.49558163  0.60636211  0.95898398     0.06820
H9          H  0.40592896  0.72393378  0.04040610     0.06660
C10         C  0.66456618  0.56920717  0.97854925     0.03700
C11         C  0.63578048  0.61726298  0.98889264    -0.12450
C12         C  0.58460461  0.61431386  0.01115506     0.01200
C13         C  0.56765513  0.56399494  0.02762253    -0.10970
C14         C  0.58534210  0.51893451  0.00064200     0.03690
C15         C  0.63603571  0.52098321  0.97703578    -0.10400
H16         H  0.65309981  0.65576537  0.98190618     0.09290
H17         H  0.53421336  0.56120088  0.05376726     0.06820
H18         H  0.65373394  0.48561478  0.95978469     0.06660
C19         C  0.49782625  0.39666879  0.01265805     0.03700
C20         C  0.54524907  0.42659290  0.01200914    -0.12450
C21         C  0.54465261  0.47793198  0.98991497     0.01200
C22         C  0.49716818  0.49586952  0.96693925    -0.10970
C23         C  0.44831337  0.47698910  0.98586728     0.03690
C24         C  0.44832245  0.42472315  0.00627859    -0.10400
H25         H  0.58197652  0.40987865  0.02743664     0.09290
H26         H  0.49756825  0.52986386  0.94121553     0.06820
H27         H  0.41072555  0.40638786  0.01551495     0.06660
C28         C  0.32555833  0.57082293  0.97652159     0.03700
C29         C  0.35302969  0.61813749  0.98823640    -0.12450
C30         C  0.40396907  0.61393590  0.00975855     0.01200
C31         C  0.42195769  0.56293009  0.02438306    -0.10970
C32         C  0.40583271  0.51857122  0.99686470     0.03690
C33         C  0.35516523  0.52185212  0.97430739    -0.10400
H34         H  0.33486513  0.65707123  0.98322576     0.09290
H35         H  0.45536078  0.55887581  0.04945733     0.06820
H36         H  0.33826103  0.48691037  0.95724591     0.06660
C37         C  0.98006897  0.57523427  0.66591925     0.03700
C38         C  0.98508767  0.52729624  0.63716495    -0.12450
C39         C  0.00857029  0.52838119  0.58655441     0.01200
C40         C  0.02946988  0.57659675  0.56884294    -0.10970
C41         C  0.00708185  0.62454579  0.58628962     0.03690
C42         C  0.98473668  0.62449406  0.63768091    -0.10400
H43         H  0.97273703  0.48987176  0.65466854     0.09290
H44         H  0.05664392  0.57694623  0.53599753     0.06820
H45         H  0.97369296  0.66189963  0.65558001     0.06660
C46         C  0.01899894  0.74717849  0.49463098     0.03700
C47         C  0.01880452  0.71720511  0.54313470    -0.12450
C48         C  0.99725029  0.66646622  0.54429542     0.01200
C49         C  0.97338897  0.64994896  0.49785570    -0.10970
C50         C  0.99128467  0.66819381  0.44802933     0.03690
C51         C  0.01145547  0.71985488  0.44599300    -0.10400
H52         H  0.03337566  0.73386562  0.57939601     0.09290
H53         H  0.94855206  0.61641081  0.49982127     0.06820
H54         H  0.01884947  0.73848864  0.40773684     0.06660
C55         C  0.97694767  0.57788850  0.32631187     0.03700
C56         C  0.97970767  0.62696949  0.35398494    -0.12450
C57         C  0.99884092  0.62611682  0.40624641     0.01200
C58         C  0.01976511  0.57764001  0.42457770    -0.10970
C59         C  0.99970623  0.52970247  0.40767351     0.03690
C60         C  0.97962153  0.52932361  0.35620197    -0.10400
H61         H  0.96965998  0.66452132  0.33487647     0.09290
H62         H  0.04383140  0.57728733  0.45866775     0.06820
H63         H  0.96838292  0.49215751  0.33893208     0.06660
C64         C  0.02429084  0.40754299  0.49711698     0.03700
C65         C  0.02449619  0.43692893  0.54486673    -0.12450
C66         C  0.00046486  0.48740262  0.54540790     0.01200
C67         C  0.97504168  0.50445601  0.49923156    -0.10970
C68         C  0.99356850  0.48716753  0.44976221     0.03690
C69         C  0.01586505  0.43569910  0.44820208    -0.10400
H70         H  0.04059696  0.41988480  0.58109910     0.09290
H71         H  0.94842061  0.53761492  0.50092240     0.06820
H72         H  0.02412956  0.41768662  0.41020411     0.06660
C73         C  0.50471331  0.05796270  0.67509767     0.03700
C74         C  0.45657254  0.05827818  0.64613054    -0.12450
C75         C  0.45581422  0.08023264  0.59482070     0.01200
C76         C  0.50263768  0.10362456  0.57624166    -0.10970
C77         C  0.55228130  0.08509036  0.59409657     0.03690
C78         C  0.55366853  0.06457268  0.64636917    -0.10400
H79         H  0.42024157  0.04327586  0.66385944     0.09290
H80         H  0.50120687  0.12889458  0.54204439     0.06820
H81         H  0.59162514  0.05565927  0.66440652     0.06660
C82         C  0.67363818  0.09700350  0.49884339     0.03700
C83         C  0.64590939  0.09604180  0.54887751    -0.12450
C84         C  0.59411939  0.07593780  0.55133240     0.01200
C85         C  0.57605744  0.05270871  0.50525644    -0.10970
C86         C  0.59291941  0.07042962  0.45509432     0.03690
C87         C  0.64434940  0.09053475  0.45141291    -0.10400
H88         H  0.66478736  0.10804902  0.58496235     0.09290
H89         H  0.54213673  0.02858714  0.50808069     0.06820
H90         H  0.66198904  0.09927918  0.41285155     0.06660
C91         C  0.50371872  0.04391426  0.33623347     0.03700
C92         C  0.55255704  0.05282688  0.36275426    -0.12450
C93         C  0.55056785  0.07490149  0.41356134     0.01200
C94         C  0.50089405  0.09333280  0.43138504    -0.10970
C95         C  0.45476982  0.06825914  0.41645336     0.03690
C96         C  0.45551943  0.04452518  0.36670128    -0.10400
H97         H  0.59084162  0.04550742  0.34401596     0.09290
H98         H  0.49887958  0.11941937  0.46397191     0.06820
H99         H  0.41912417  0.02929859  0.35089369     0.06660
C100        C  0.33414957  0.09403313  0.50559975     0.03700
C101        C  0.36314400  0.09323587  0.55377346    -0.12450
C102        C  0.41415127  0.06978515  0.55451465     0.01200
C103        C  0.43122999  0.04392856  0.50855046    -0.10970
C104        C  0.41314757  0.06137038  0.45890466     0.03690
C105        C  0.36207671  0.08421544  0.45711667    -0.10400
H106        H  0.34563463  0.10889363  0.58994709     0.09290
H107        H  0.46431981  0.01700225  0.51042882     0.06820
H108        H  0.34412163  0.09173819  0.41892853     0.06660
O109        O  0.01039475  0.00395303  0.45505904    -0.71210
O110        O  0.00421940  0.15452295  0.45485582    -0.71420
O111        O  0.08178481  0.08195567  0.45674723    -0.71280
O112        O  0.93061582  0.07772073  0.45385425    -0.71290
O113        O  0.92793208  0.08337572  0.53985018    -0.71250
O114        O  0.07850214  0.07380605  0.54271973    -0.71270
O115        O  0.00678636  0.15304098  0.54106896    -0.71210
O116        O  0.00053884  0.00246046  0.54084802    -0.71400
V117        V  0.00637720  0.07928620  0.45671015     1.35240
V118        V  0.00332339  0.07796284  0.53949776     1.35170
C119        C  0.00687034  0.97741349  0.49795845     0.78030
C120        C  0.00757721  0.17928466  0.49784158     0.78090
C121        C  0.10576553  0.07929080  0.50050520     0.77960
C122        C  0.90355107  0.08227957  0.49642865     0.77920
O123        O  0.45703855  0.99097604  0.00522943    -0.71210
O124        O  0.45801678  0.14121032  0.00932736    -0.71420
O125        O  0.45889098  0.06882838  0.93114135    -0.71280
O126        O  0.45698462  0.06260652  0.08207689    -0.71290
O127        O  0.54331238  0.06472268  0.08162256    -0.71250
O128        O  0.54498451  0.06069231  0.93116188    -0.71270
O129        O  0.54423011  0.13930814  0.00359631    -0.71210
O130        O  0.54316121  0.98817160  0.01077346    -0.71400
V131        V  0.45938805  0.06600903  0.00671825     1.35240
V132        V  0.54231806  0.06357369  0.00651924     1.35170
C133        C  0.49958875  0.96399263  0.01019919     0.78030
C134        C  0.50116391  0.16602966  0.00778938     0.78090
C135        C  0.50226004  0.06351197  0.90539953     0.77960
C136        C  0.50002120  0.06172532  0.10744129     0.77920
O137        O  0.07030765  0.53315531  0.99572794    -0.71210
O138        O  0.91992344  0.53250972  0.99657197    -0.71420
O139        O  0.99548816  0.53181109  0.92120871    -0.71280
O140        O  0.99418634  0.53427787  0.07194400    -0.71290
O141        O  0.99094611  0.62051281  0.06914911    -0.71250
O142        O  0.99282118  0.61809674  0.91839201    -0.71270
O143        O  0.91739240  0.61873200  0.99286837    -0.71210
O144        O  0.06877266  0.61934352  0.99243542    -0.71400
V145        V  0.99505218  0.53466979  0.99647122     1.35240
V146        V  0.99285543  0.61754679  0.99359526     1.35170
C147        C  0.09534352  0.57607177  0.99248143     0.78030
C148        C  0.89308450  0.57528905  0.99292074     0.78090
C149        C  0.99275829  0.57455584  0.89428138     0.77960
C150        C  0.99082531  0.57777566  0.09625001     0.77920
C151        C  0.24791912  0.06728142  0.54625698    -0.20730
C152        C  0.27512727  0.09687756  0.50693298    -0.08780
C153        C  0.24561687  0.12192791  0.46621186     0.30080
C154        C  0.19059476  0.11532907  0.46392448    -0.20730
C155        C  0.16393227  0.08460699  0.50259440    -0.08790
C156        C  0.19296968  0.06138203  0.54438038     0.30090
F157        F  0.16862699  0.03114034  0.58228126    -0.19310
H158        H  0.26952319  0.04660145  0.57746095     0.18450
H159        H  0.16866131  0.13484068  0.43221873     0.18460
F160        F  0.26962948  0.15310715  0.42892383    -0.19300
C161        C  0.54202221  0.02759592  0.19044163    -0.20730
C162        C  0.50004858  0.05543950  0.16562743    -0.08780
C163        C  0.45788499  0.07559854  0.19669728     0.30080
C164        C  0.45881622  0.06967907  0.25180636    -0.20730
C165        C  0.50121779  0.04260363  0.27724946    -0.08790
C166        C  0.54244726  0.02058311  0.24565689     0.30090
F167        F  0.58271217  0.99164512  0.26767021    -0.19310
H168        H  0.57424798  0.01053932  0.16690328     0.18450
H169        H  0.42699479  0.08826648  0.27467327     0.18460
F170        F  0.41686362  0.10301839  0.17404739    -0.19300
C171        C  0.75941157  0.05869999  0.46491242    -0.20730
C172        C  0.73273654  0.09718861  0.49595494    -0.08780
C173        C  0.76302551  0.13128658  0.52656476     0.30080
C174        C  0.81866039  0.12605761  0.52664656    -0.20730
C175        C  0.84497236  0.08736828  0.49573818    -0.08790
C176        C  0.81487896  0.05385808  0.46462494     0.30090
F177        F  0.83893886  0.01479379  0.43595691    -0.19310
H178        H  0.73705739  0.03101860  0.44198398     0.18450
H179        H  0.84136482  0.15265606  0.55048659     0.18460
F180        F  0.73905344  0.17005179  0.55564840    -0.19300
C181        C  0.46173711  0.08452698  0.81774301    -0.20730
C182        C  0.50282249  0.06020627  0.84673565    -0.08780
C183        C  0.54368942  0.03266623  0.81917069     0.30080
C184        C  0.54339988  0.03013272  0.76358091    -0.20730
C185        C  0.50271885  0.05542657  0.73433598    -0.08790
C186        C  0.46187783  0.08293939  0.76236601     0.30090
F187        F  0.42335039  0.11097553  0.73638280    -0.19310
H188        H  0.43013422  0.10635291  0.83795953     0.18450
H189        H  0.57514840  0.00845993  0.74352401     0.18460
F190        F  0.58349547  0.00743981  0.84593046    -0.19300
C191        C  0.04734029  0.31865308  0.45754186    -0.20730
C192        C  0.02535421  0.34848298  0.49945644    -0.08780
C193        C  0.99807953  0.32147657  0.54099373     0.30080
C194        C  0.99318689  0.26651363  0.54032910    -0.20730
C195        C  0.01369507  0.23724226  0.49776862    -0.08790
C196        C  0.04126157  0.26358177  0.45641798     0.30090
F197        F  0.06309057  0.23603058  0.41538600    -0.19310
H198        H  0.06880230  0.33790013  0.42528176     0.18450
H199        H  0.97165658  0.24694242  0.57242668     0.18460
F200        F  0.97306274  0.34816147  0.58085923    -0.19300
C201        C  0.94859615  0.61433556  0.23680368    -0.20730
C202        C  0.97736030  0.57658967  0.26713900    -0.08780
C203        C  0.01079997  0.53972796  0.24033548     0.30080
C204        C  0.01442494  0.54020758  0.18494733    -0.20730
C205        C  0.98626161  0.57822534  0.15484980    -0.08790
C206        C  0.95308806  0.61532216  0.18117664     0.30090
F207        F  0.92395440  0.65161195  0.15308118    -0.19310
H208        H  0.92259287  0.64307470  0.25609135     0.18450
H209        H  0.04053939  0.51159823  0.16551565     0.18460
F210        F  0.04226131  0.50473098  0.26759128    -0.19300
C211        C  0.99312797  0.83256095  0.53796802    -0.20730
C212        C  0.02062660  0.80633250  0.49648126    -0.08780
C213        C  0.04454904  0.83738213  0.45606630     0.30080
C214        C  0.03941468  0.89289530  0.45660437    -0.20730
C215        C  0.01137474  0.91869223  0.49782201    -0.08790
C216        C  0.98888861  0.88789618  0.53898621     0.30090
F217        F  0.96108365  0.91105754  0.57931119    -0.19310
H218        H  0.97318614  0.81013396  0.56915824     0.18450
H219        H  0.05809422  0.91585198  0.42500428     0.18460
F220        F  0.07380180  0.81452062  0.41663944    -0.19300
C221        C  0.01028526  0.53494135  0.75134697    -0.20730
C222        C  0.97789500  0.57287653  0.72486199    -0.08780
C223        C  0.94928168  0.61053526  0.75515992     0.30080
C224        C  0.95481642  0.61119037  0.81034817    -0.20730
C225        C  0.98790981  0.57373886  0.83623457    -0.08790
C226        C  0.01495987  0.53502646  0.80641086     0.30090
F227        F  0.04779514  0.49875917  0.83022125    -0.19310
H228        H  0.03377741  0.50615140  0.72920884     0.18450
H229        H  0.93264003  0.64056605  0.83304044     0.18460
F230        F  0.91547217  0.64611861  0.73181720    -0.19300
C231        C  0.18077832  0.61620719  0.96061664    -0.20730
C232        C  0.15409899  0.57493026  0.98732566    -0.08780
C233        C  0.18387463  0.53106453  0.00649094     0.30080
C234        C  0.23911275  0.52939261  0.00040675    -0.20730
C235        C  0.26630333  0.57094819  0.97452584    -0.08790
C236        C  0.23624062  0.61413517  0.95369748     0.30090
F237        F  0.26002378  0.65391251  0.92589162    -0.19310
H238        H  0.15854812  0.64972108  0.94424215     0.18450
H239        H  0.26081360  0.49614987  0.01797449     0.18460
F240        F  0.15985491  0.49041542  0.03282397    -0.19300
C241        C  0.54370247  0.25347735  0.99040614    -0.20730
C242        C  0.50104162  0.22472044  0.01153436    -0.08780
C243        C  0.45854231  0.25258805  0.03620406     0.30080
C244        C  0.45874814  0.30809995  0.03897145    -0.20730
C245        C  0.50071423  0.33730752  0.01629228    -0.08790
C246        C  0.54338243  0.30893256  0.99188786     0.30090
F247        F  0.58362062  0.33451379  0.96647318    -0.19310
H248        H  0.57666088  0.23305190  0.97088771     0.18450
H249        H  0.42566180  0.32803906  0.05863483     0.18460
F250        F  0.41688765  0.22623158  0.05817912    -0.19300
C251        C  0.80735052  0.53007424  0.00761505    -0.20730
C252        C  0.83494091  0.57390258  0.98747397    -0.08780
C253        C  0.80680463  0.61463666  0.96051521     0.30080
C254        C  0.75171221  0.61165224  0.95473068    -0.20730
C255        C  0.72364199  0.56845286  0.97639145    -0.08790
C256        C  0.75237549  0.52749705  0.00286791     0.30090
F257        F  0.72728762  0.48635286  0.02725116    -0.19310
H258        H  0.82824065  0.49831484  0.02859655     0.18450
H259        H  0.73102809  0.64352784  0.93383107     0.18460
F260        F  0.83255633  0.65691077  0.93907874    -0.19300
C261        C  0.45687850  0.87807081  0.99321220    -0.20730
C262        C  0.49771440  0.90585604  0.01682293    -0.08780
C263        C  0.53465163  0.87798512  0.04863272     0.30080
C264        C  0.53082953  0.82299144  0.05608578    -0.20730
C265        C  0.49074318  0.79464640  0.03118346    -0.08790
C266        C  0.45371878  0.82311667  0.99949756     0.30090
F267        F  0.41625450  0.79779292  0.97173359    -0.19310
H268        H  0.42812650  0.89882302  0.96843915     0.18450
H269        H  0.55969972  0.80258766  0.08090048     0.18460
F270        F  0.57379304  0.90398923  0.07334739    -0.19300
loop_ 
_geom_bond_atom_site_label_1 
_geom_bond_atom_site_label_2 
_geom_bond_distance 
_geom_bond_site_symmetry_2 
_ccdc_geom_bond_type 
C1            C2   1.428       .  A
C1            C6   1.430       .  A
C1          C265   1.489       .  S
C2            C3   1.399       .  A
C2            H7   1.082       .  S
C3            C4   1.390   1_554  A
C3           C12   1.499       .  S
C4            C5   1.391   1_556  A
C4            H8   1.057       .  S
C5            C6   1.403       .  A
C5           C30   1.504       .  S
C6            H9   1.082       .  S
C10          C11   1.424       .  A
C10          C15   1.424       .  A
C10         C255   1.486       .  S
C11          C12   1.399   1_556  A
C11          H16   1.082       .  S
C12          C13   1.400       .  A
C13          C14   1.395       .  A
C13          H17   1.063       .  S
C14          C15   1.400   1_554  A
C14          C21   1.499   1_554  S
C15          H18   1.083       .  S
C19          C20   1.423       .  A
C19          C24   1.430       .  A
C19         C245   1.497       .  S
C20          C21   1.399   1_554  A
C20          H25   1.083       .  S
C21          C22   1.399       .  A
C22          C23   1.401       .  A
C22          H26   1.065       .  S
C23          C24   1.406   1_556  A
C23          C32   1.507       .  S
C24          H27   1.081       .  S
C28          C29   1.427       .  A
C28          C33   1.430       .  A
C28         C235   1.492       .  S
C29          C30   1.400   1_556  A
C29          H34   1.080       .  S
C30          C31   1.399       .  A
C31          C32   1.395   1_554  A
C31          H35   1.061       .  S
C32          C33   1.404       .  A
C33          H36   1.083       .  S
C37          C38   1.421       .  A
C37          C42   1.426       .  A
C37         C222   1.485       .  S
C38          C39   1.397   1_655  A
C38          H43   1.083       .  S
C39          C40   1.397       .  A
C39          C66   1.494       .  S
C40          C41   1.397       .  A
C40          H44   1.065       .  S
C41          C42   1.403   1_455  A
C41          C48   1.502   1_455  S
C42          H45   1.081       .  S
C46          C47   1.426       .  A
C46          C51   1.432       .  A
C46         C212   1.493       .  S
C47          C48   1.398   1_455  A
C47          H52   1.083       .  S
C48          C49   1.396       .  A
C49          C50   1.400       .  A
C49          H53   1.061       .  S
C50          C51   1.406   1_655  A
C50          C57   1.513       .  S
C51          H54   1.080       .  S
C55          C56   1.433       .  A
C55          C60   1.427       .  A
C55         C202   1.491       .  S
C56          C57   1.408       .  A
C56          H61   1.082       .  S
C57          C58   1.395   1_655  A
C58          C59   1.394   1_455  A
C58          H62   1.058       .  S
C59          C60   1.399       .  A
C59          C68   1.503       .  S
C60          H63   1.083       .  S
C64          C65   1.423       .  A
C64          C69   1.428       .  A
C64         C192   1.488       .  S
C65          C66   1.397       .  A
C65          H70   1.083       .  S
C66          C67   1.393   1_455  A
C67          C68   1.397       .  A
C67          H71   1.061       .  S
C68          C69   1.403   1_655  A
C69          H72   1.082       .  S
C73          C74   1.423       .  A
C73          C78   1.430       .  A
C73         C185   1.493       .  S
C74          C75   1.398       .  A
C74          H79   1.083       .  S
C75          C76   1.398       .  A
C75         C102   1.500       .  S
C76          C77   1.402       .  A
C76          H80   1.063       .  S
C77          C78   1.407       .  A
C77          C84   1.512       .  S
C78          H81   1.082       .  S
C82          C83   1.431       .  A
C82          C87   1.426       .  A
C82         C172   1.487       .  S
C83          C84   1.407       .  A
C83          H88   1.082       .  S
C84          C85   1.395       .  A
C85          C86   1.396       .  A
C85          H89   1.058       .  S
C86          C87   1.400       .  A
C86          C93   1.506       .  S
C87          H90   1.083       .  S
C91          C92   1.431       .  A
C91          C96   1.425       .  A
C91         C165   1.489       .  S
C92          C93   1.404       .  A
C92          H97   1.080       .  S
C93          C94   1.395       .  A
C94          C95   1.392       .  A
C94          H98   1.060       .  S
C95          C96   1.397       .  A
C95         C104   1.496       .  S
C96          H99   1.083       .  S
C100        C101   1.425       .  A
C100        C105   1.422       .  A
C100        C152   1.485       .  S
C101        C102   1.402       .  A
C101        H106   1.083       .  S
C102        C103   1.396       .  A
C103        C104   1.398       .  A
C103        H107   1.064       .  S
C104        C105   1.398       .  A
C105        H108   1.081       .  S
O109        V117   1.900       .  S
O109        C119   1.264   1_545  A
O110        V117   1.895       .  S
O110        C120   1.263       .  A
O111        V117   1.899       .  S
O111        C121   1.265       .  A
O112        V117   1.909   1_655  S
O112        C122   1.267       .  A
O113        V118   1.898   1_655  S
O113        C122   1.263       .  A
O114        V118   1.895       .  S
O114        C121   1.264       .  A
O115        V118   1.896       .  S
O115        C120   1.265       .  A
O116        V118   1.905       .  S
O116        C119   1.266   1_545  A
V117        V118   2.085       .  T
C119        C215   1.482       .  S
C120        C195   1.471       .  S
C121        C155   1.474       .  S
C122        C175   1.477       .  S
O123        V131   1.893   1_565  S
O123        C133   1.263       .  A
O124        V131   1.896       .  S
O124        C134   1.263       .  A
O125        V131   1.904   1_556  S
O125        C135   1.267       .  A
O126        V131   1.899       .  S
O126        C136   1.265       .  A
O127        V132   1.893       .  S
O127        C136   1.263       .  A
O128        V132   1.901   1_556  S
O128        C135   1.264       .  A
O129        V132   1.910       .  S
O129        C134   1.268       .  A
O130        V132   1.901   1_565  S
O130        C133   1.265       .  A
V131        V132   2.086       .  T
C133        C262   1.473       .  S
C134        C242   1.483       .  S
C135        C182   1.481       .  S
C136        C162   1.472       .  S
O137        V145   1.892   1_455  S
O137        C147   1.263       .  A
O138        V145   1.892       .  S
O138        C148   1.263       .  A
O139        V145   1.898       .  S
O139        C149   1.264       .  A
O140        V145   1.901   1_554  S
O140        C150   1.265       .  A
O141        V146   1.906   1_554  S
O141        C150   1.265       .  A
O142        V146   1.894       .  S
O142        C149   1.263       .  A
O143        V146   1.898       .  S
O143        C148   1.264       .  A
O144        V146   1.911   1_455  S
O144        C147   1.267       .  A
V145        V146   2.088       .  T
C147        C232   1.481       .  S
C148        C252   1.472       .  S
C149        C225   1.470       .  S
C150        C205   1.479       .  S
C151        C152   1.407       .  A
C151        C156   1.395       .  A
C151        H158   1.083       .  S
C152        C153   1.409       .  A
C153        C154   1.399       .  A
C153        F160   1.357       .  S
C154        C155   1.405       .  A
C154        H159   1.083       .  S
C155        C156   1.403       .  A
C156        F157   1.358       .  S
C161        C162   1.405       .  A
C161        C166   1.399       .  A
C161        H168   1.083       .  S
C162        C163   1.401       .  A
C163        C164   1.394       .  A
C163        F170   1.358       .  S
C164        C165   1.411       .  A
C164        H169   1.083       .  S
C165        C166   1.408       .  A
C166        F167   1.356   1_545  S
C171        C172   1.409       .  A
C171        C176   1.398       .  A
C171        H178   1.084       .  S
C172        C173   1.407       .  A
C173        C174   1.403       .  A
C173        F180   1.357       .  S
C174        C175   1.407       .  A
C174        H179   1.084       .  S
C175        C176   1.402       .  A
C176        F177   1.358       .  S
C181        C182   1.400       .  A
C181        C186   1.396       .  A
C181        H188   1.083       .  S
C182        C183   1.409       .  A
C183        C184   1.403       .  A
C183        F190   1.357       .  S
C184        C185   1.406       .  A
C184        H189   1.082       .  S
C185        C186   1.414       .  A
C186        F187   1.358       .  S
C191        C192   1.406       .  A
C191        C196   1.400       .  A
C191        H198   1.082       .  S
C192        C193   1.415   1_455  A
C193        C194   1.393       .  A
C193        F200   1.357       .  S
C194        C195   1.398   1_655  A
C194        H199   1.084       .  S
C195        C196   1.407       .  A
C196        F197   1.358       .  S
C201        C202   1.406       .  A
C201        C206   1.404       .  A
C201        H208   1.082       .  S
C202        C203   1.414   1_655  A
C203        C204   1.397       .  A
C203        F210   1.358       .  S
C204        C205   1.400   1_455  A
C204        H209   1.083       .  S
C205        C206   1.408       .  A
C206        F207   1.357       .  S
C211        C212   1.411   1_655  A
C211        C216   1.397       .  A
C211        H218   1.083       .  S
C212        C213   1.409       .  A
C213        C214   1.402       .  A
C213        F220   1.356       .  S
C214        C215   1.407       .  A
C214        H219   1.083       .  S
C215        C216   1.404   1_455  A
C216        F217   1.358       .  S
C221        C222   1.410   1_455  A
C221        C226   1.394       .  A
C221        H228   1.083       .  S
C222        C223   1.407       .  A
C223        C224   1.400       .  A
C223        F230   1.357       .  S
C224        C225   1.405       .  A
C224        H229   1.083       .  S
C225        C226   1.400   1_655  A
C226        F227   1.358       .  S
C231        C232   1.405       .  A
C231        C236   1.403       .  A
C231        H238   1.083       .  S
C232        C233   1.406   1_556  A
C233        C234   1.395       .  A
C233        F240   1.358       .  S
C234        C235   1.407   1_554  A
C234        H239   1.083       .  S
C235        C236   1.411       .  A
C236        F237   1.357       .  S
C241        C242   1.400   1_556  A
C241        C246   1.398       .  A
C241        H248   1.083       .  S
C242        C243   1.409       .  A
C243        C244   1.402       .  A
C243        F250   1.357       .  S
C244        C245   1.407       .  A
C244        H249   1.081       .  S
C245        C246   1.416   1_554  A
C246        F247   1.357       .  S
C251        C252   1.400   1_554  A
C251        C256   1.393       .  A
C251        H258   1.083       .  S
C252        C253   1.406       .  A
C253        C254   1.399       .  A
C253        F260   1.358       .  S
C254        C255   1.407       .  A
C254        H259   1.082       .  S
C255        C256   1.412   1_556  A
C256        F257   1.358       .  S
C261        C262   1.400   1_556  A
C261        C266   1.395       .  A
C261        H268   1.083       .  S
C262        C263   1.406       .  A
C263        C264   1.400       .  A
C263        F270   1.358       .  S
C264        C265   1.408       .  A
C264        H269   1.082       .  S
C265        C266   1.413   1_554  A
C266        F267   1.357       .  S
