geometry optimzed in LAMMPS
_audit_creation_date              2020-12-01 
_audit_creation_method            'lammps2cif' 
_symmetry_space_group_name_H-M    'P1' 
_symmetry_Int_Tables_number       1 
_symmetry_cell_setting            triclinic 
loop_ 
_symmetry_equiv_pos_as_xyz 
  x,y,z 
_cell_length_a                    24.95925692 
_cell_length_b                    24.91895528460604 
_cell_length_c                    56.32019265485551 
_cell_angle_alpha                 89.02774776968852 
_cell_angle_beta                  90.12237701979885 
_cell_angle_gamma                 89.97595354817551 
loop_ 
_atom_site_label 
_atom_site_type_symbol 
_atom_site_fract_x 
_atom_site_fract_y 
_atom_site_fract_z 
_atom_site_charge 
N1          N  0.00027888  0.00584484  0.53637250    -0.35200
N2          N  0.97240694  0.92689224  0.50069105    -0.55700
N3          N  0.00122749  0.00487301  0.46367528    -0.35200
N4          N  0.02432586  0.08612081  0.49928544    -0.55700
C5          C  0.97812784  0.96728016  0.55061048     0.28400
C6          C  0.00578090  0.05085959  0.54943208     0.28400
C7          C  0.97802559  0.96656712  0.45016644     0.28400
C8          C  0.00651942  0.04980654  0.44989859     0.28400
C9          C  0.96583941  0.89534175  0.52033238     0.37000
C10         C  0.96596506  0.89501473  0.48161274     0.37000
C11         C  0.04286820  0.11284096  0.51831436     0.37000
C12         C  0.04380042  0.11213894  0.47988590     0.37000
C13         C  0.97094899  0.98842640  0.57308365    -0.20400
C14         C  0.98636805  0.04094294  0.57205431    -0.20400
C15         C  0.96971785  0.98781895  0.42746441    -0.20400
C16         C  0.98586820  0.04015613  0.42757619    -0.20400
C17         C  0.95367284  0.84346864  0.51360279    -0.21500
C18         C  0.95372972  0.84326317  0.48926381    -0.21500
C19         C  0.07380148  0.15617536  0.51095306    -0.21500
C20         C  0.07444419  0.15569393  0.48662412    -0.21500
C21         C  0.96672811  0.91314169  0.54421509    -0.16800
C22         C  0.03123011  0.09952996  0.54222843    -0.16800
C23         C  0.03295108  0.09808731  0.45617335    -0.16800
C24         C  0.96686861  0.91248155  0.45741840    -0.16800
H25         H  0.95742335  0.96934846  0.58923526     0.16100
H26         H  0.98411910  0.06819801  0.58674477     0.16100
H27         H  0.95475304  0.96890380  0.41178741     0.16100
H28         H  0.98323434  0.06755784  0.41252644     0.16100
H29         H  0.94393582  0.80936981  0.52490747     0.14300
H30         H  0.94394025  0.80898146  0.47857833     0.14300
H31         H  0.09444896  0.18481918  0.52191966     0.14300
H32         H  0.09563306  0.18393228  0.47527110     0.14300
H33         H  0.01636495  0.00007568  0.51968946     0.27600
H34         H  0.01839261  0.99886151  0.48026663     0.27600
C35         C  0.99376342  0.01422075  0.75067600    -0.01000
C36         C  0.99368314  0.99459255  0.24984903    -0.01000
N37         N  0.95156275  0.80169692  0.32007734    -0.25800
N38         N  0.92817674  0.83968634  0.33251776    -0.33700
C39         C  0.92633411  0.88518779  0.31929390     0.02500
C40         C  0.94946463  0.87532435  0.29754066     0.08500
C41         C  0.96507867  0.82209303  0.29859059    -0.04600
H42         H  0.91303540  0.92362414  0.32572811     0.09200
H43         H  0.98784726  0.80083390  0.28539588     0.10400
Cu44       Cu  0.91237357  0.83265474  0.36873895     0.44200
Cu45       Cu  0.97222114  0.72702517  0.33455079     0.42000
Cu46       Cu  0.99542751  0.73407530  0.39802208     0.43900
N47         N  0.93182099  0.83498276  0.40463444    -0.33200
N48         N  0.96898546  0.80369861  0.41423891    -0.27500
C49         C  0.98505017  0.82497167  0.43489598    -0.03600
C50         C  0.95606395  0.87163791  0.43872353     0.08600
C51         C  0.92136921  0.87538961  0.41945235     0.02400
H52         H  0.01713892  0.80895365  0.44584905     0.10100
H53         H  0.89291461  0.90711104  0.41561229     0.09200
N54         N  0.00197259  0.66369438  0.37877928    -0.34700
N55         N  0.99272530  0.66072290  0.35570004    -0.26900
C56         C  0.99631238  0.60903486  0.34920065    -0.02100
C57         C  0.00821603  0.57794841  0.36920754     0.06500
C58         C  0.01155555  0.61404180  0.38754597     0.04600
H59         H  0.98939161  0.59522735  0.33135603     0.09700
H60         H  0.01886028  0.60465334  0.40609985     0.08500
N61         N  0.05701522  0.96635652  0.00040393    -0.35200
N62         N  0.97739763  0.99074992  0.96350955    -0.55700
N63         N  0.89790651  0.01496657  0.00008747    -0.35200
N64         N  0.97753613  0.98905347  0.03699739    -0.55700
C65         C  0.08445221  0.94997398  0.98103499     0.28400
C66         C  0.08447228  0.94893021  0.01990123     0.28400
C67         C  0.87218600  0.03509439  0.98063330     0.28400
C68         C  0.87212323  0.03382285  0.01942548     0.28400
C69         C  0.01866997  0.97714462  0.94916692     0.37000
C70         C  0.93566746  0.00432950  0.94915508     0.37000
C71         C  0.01872750  0.97450814  0.05149917     0.37000
C72         C  0.93570076  0.00161237  0.05119402     0.37000
C73         C  0.12993758  0.92227158  0.98839068    -0.20400
C74         C  0.12995007  0.92161783  0.01275031    -0.20400
C75         C  0.82927909  0.06628832  0.98776437    -0.20400
C76         C  0.82921696  0.06545432  0.01212185    -0.20400
C77         C  0.00279280  0.98289743  0.92564171    -0.21500
C78         C  0.95019702  0.99741433  0.92568132    -0.21500
C79         C  0.00277598  0.97878419  0.07496308    -0.21500
C80         C  0.95017982  0.99333721  0.07473678    -0.21500
C81         C  0.06997394  0.95844764  0.95681809    -0.16800
C82         C  0.06996013  0.95601726  0.04405771    -0.16800
C83         C  0.88600225  0.02413830  0.04356367    -0.16800
C84         C  0.88620978  0.02704433  0.95654801    -0.16800
H85         H  0.15963981  0.90321992  0.97738601     0.16100
H86         H  0.15966144  0.90196986  0.02389260     0.16100
H87         H  0.80138722  0.08847140  0.97661019     0.16100
H88         H  0.80127769  0.08686382  0.02317237     0.16100
H89         H  0.02578180  0.97809044  0.90965194     0.14300
H90         H  0.92632258  0.00292719  0.90982539     0.14300
H91         H  0.02570936  0.97273375  0.09101663     0.14300
H92         H  0.92624910  0.99772851  0.09052000     0.14300
H93         H  0.02390817  0.99146205  0.00030544     0.27600
H94         H  0.92869165  0.98695001  0.00017927     0.27600
N95         N  0.79718904  0.02913193  0.18192287    -0.25800
N96         N  0.83311240  0.05513887  0.16890210    -0.33700
C97         C  0.87944044  0.05770905  0.18110567     0.02500
C98         C  0.87214805  0.03240330  0.20285287     0.08500
C99         C  0.81968750  0.01461417  0.20283785    -0.04600
H100        H  0.91644230  0.07411840  0.17413011     0.09200
H101        H  0.80004754  0.99089308  0.21652946     0.10400
Cu102      Cu  0.82064976  0.07649357  0.13353705     0.44200
Cu103      Cu  0.72116686  0.01072235  0.16923009     0.42000
Cu104      Cu  0.70854106  0.01260247  0.10485051     0.43900
N105        N  0.81611102  0.06470866  0.09724945    -0.33200
N106        N  0.77837589  0.03564740  0.08714482    -0.27500
C107        C  0.79570732  0.02049903  0.06561531    -0.03600
C108        C  0.84680799  0.04099054  0.06205307     0.08600
C109        C  0.85747734  0.07028781  0.08220326     0.02400
H110        H  0.77462512  0.99298104  0.05425170     0.10100
H111        H  0.89526411  0.08869568  0.08682413     0.09200
N112        N  0.64414570  0.00132947  0.12796972    -0.34700
N113        N  0.64890284  0.00059006  0.15137464    -0.26900
C114        C  0.59988708  0.99591861  0.16111409    -0.02100
C115        C  0.56229460  0.99392799  0.14307375     0.06500
C116        C  0.59188741  0.99729833  0.12224526     0.04600
H117        H  0.59203294  0.99556505  0.18000186     0.09700
H118        H  0.57676308  0.99811392  0.10423843     0.08500
N119        N  0.04914858  0.20525099  0.41139158    -0.25800
N120        N  0.07077764  0.16416979  0.40038664    -0.33700
C121        C  0.07280102  0.12169621  0.41531853     0.02500
C122        C  0.04966668  0.13574026  0.43664227     0.08500
C123        C  0.03565410  0.18938105  0.43359776    -0.04600
H124        H  0.08499642  0.08186344  0.41019715     0.09200
H125        H  0.01369193  0.21377259  0.44596232     0.10400
Cu126      Cu  0.07960679  0.16056722  0.36397552     0.44200
Cu127      Cu  0.03325890  0.27808213  0.39402863     0.42000
Cu128      Cu  0.02154416  0.26734934  0.32927825     0.43900
N129        N  0.05869134  0.15246448  0.32866350    -0.33200
N130        N  0.03517214  0.19082122  0.31590496    -0.27500
C131        C  0.01995230  0.17042332  0.29489726    -0.03600
C132        C  0.03479115  0.11687653  0.29462030     0.08600
C133        C  0.05904175  0.10683736  0.31625905     0.02400
H134        H  0.99770353  0.19223796  0.28134176     0.10100
H135        H  0.07305995  0.06845785  0.32307235     0.09200
N136        N  0.01731120  0.33953034  0.34758225    -0.34700
N137        N  0.02211941  0.34337687  0.37090844    -0.26900
C138        C  0.01975743  0.39549714  0.37676990    -0.02100
C139        C  0.01307803  0.42608571  0.35616285     0.06500
C140        C  0.01158173  0.38917937  0.33807207     0.04600
H141        H  0.02296027  0.40977159  0.39473983     0.09700
H142        H  0.00733693  0.39788007  0.31927523     0.08500
N143        N  0.18235793  0.95165017  0.08601094    -0.25800
N144        N  0.14766850  0.92082230  0.09746996    -0.33700
C145        C  0.10470960  0.91297071  0.08350775     0.02500
C146        C  0.11122026  0.94261614  0.06261560     0.08500
C147        C  0.16156435  0.96575588  0.06471423    -0.04600
H148        H  0.06916410  0.89142785  0.08910673     0.09200
H149        H  0.18011288  0.99365278  0.05231339     0.10400
Cu150      Cu  0.15202275  0.90791843  0.13393745     0.44200
Cu151      Cu  0.25375021  0.97593530  0.10158120     0.42000
Cu152      Cu  0.26052465  0.97130239  0.16627823     0.43900
N153        N  0.14781204  0.92779205  0.16958016    -0.33200
N154        N  0.18619428  0.95280514  0.18129083    -0.27500
C155        C  0.16691711  0.96762675  0.20256545    -0.03600
C156        C  0.11412179  0.95101400  0.20418645     0.08600
C157        C  0.10334178  0.92610395  0.18302428     0.02400
H158        H  0.18870347  0.99136522  0.21527224     0.10100
H159        H  0.06490693  0.91126319  0.17711445     0.09200
N160        N  0.32715543  0.98320961  0.14443674    -0.34700
N161        N  0.32401843  0.98542268  0.12097964    -0.26900
C162        C  0.37361280  0.99043564  0.11195729    -0.02100
C163        C  0.40998461  0.99125856  0.13046658     0.06500
C164        C  0.37910658  0.98675211  0.15089670     0.04600
H165        H  0.38270524  0.99175606  0.09318069     0.09700
H166        H  0.39319651  0.98483460  0.16906297     0.08500
N167        N  0.77962257  0.04592608  0.91242135    -0.25800
N168        N  0.81847083  0.07457892  0.90260206    -0.33700
C169        C  0.85980861  0.07727048  0.91782999     0.02500
C170        C  0.84784863  0.04647173  0.93783611     0.08500
C171        C  0.79610542  0.02809130  0.93396625    -0.04600
H172        H  0.89823689  0.09487827  0.91345036     0.09200
H173        H  0.77388149  0.00030298  0.94514241     0.10400
Cu174      Cu  0.82313909  0.08947636  0.86640233     0.45000
Cu175      Cu  0.70954186  0.02736889  0.89407113     0.42000
Cu176      Cu  0.71942007  0.03251660  0.82958353     0.43900
N177        N  0.83387634  0.07121701  0.83095103    -0.33200
N178        N  0.79672599  0.04886166  0.81755153    -0.27500
C179        C  0.81881954  0.03561990  0.79662937    -0.03600
C180        C  0.87219896  0.05038802  0.79703707     0.08600
C181        C  0.88047995  0.07260116  0.81900221     0.02400
H182        H  0.79817322  0.01470636  0.78263647     0.10100
H183        H  0.91819721  0.08611679  0.82628047     0.09200
N184        N  0.64774752  0.02044709  0.84784908    -0.34700
N185        N  0.64423342  0.01851749  0.87128811    -0.26900
C186        C  0.59240682  0.01288436  0.87745524    -0.02100
C187        C  0.56169482  0.01123430  0.85690614     0.06500
C188        C  0.59823683  0.01595982  0.83853173     0.04600
H189        H  0.57832850  0.01125417  0.89559499     0.09700
H190        H  0.58932044  0.01727230  0.81972136     0.08500
N191        N  0.95656350  0.81849290  0.68446612    -0.25800
N192        N  0.93311211  0.85513466  0.67071887    -0.33700
C193        C  0.93093188  0.90175781  0.68243729     0.02500
C194        C  0.95379289  0.89382729  0.70458959     0.08500
C195        C  0.96971650  0.84072378  0.70532004    -0.04600
H196        H  0.91685780  0.93937708  0.67483805     0.09200
H197        H  0.99186477  0.82054945  0.71939195     0.10400
Cu198      Cu  0.91568463  0.84298700  0.63501878     0.44200
Cu199      Cu  0.97611507  0.74253070  0.67263774     0.42000
Cu200      Cu  0.99632102  0.73928844  0.60887373     0.43900
N201        N  0.93201643  0.83918029  0.59889587    -0.33200
N202        N  0.96900488  0.80706812  0.59023720    -0.27500
C203        C  0.98446430  0.82647899  0.56884127    -0.03600
C204        C  0.95523929  0.87270201  0.56359493     0.08600
C205        C  0.92082896  0.87788877  0.58274102     0.02400
H206        H  0.01668794  0.80990667  0.55843929     0.10100
H207        H  0.89287067  0.91023306  0.58572959     0.09200
N208        N  0.00153954  0.67166619  0.63118688    -0.34700
N209        N  0.99372642  0.67300789  0.65439425    -0.26900
C210        C  0.99589403  0.62268582  0.66339168    -0.02100
C211        C  0.00504731  0.58772992  0.64503379     0.06500
C212        C  0.00855726  0.62025726  0.62482195     0.04600
H213        H  0.98966814  0.61213482  0.68189519     0.09700
H214        H  0.01439717  0.60765668  0.60673306     0.08500
N215        N  0.04308428  0.20977075  0.58415883    -0.25800
N216        N  0.06621136  0.17037422  0.59634850    -0.33700
C217        C  0.06972437  0.12693118  0.58267320     0.02500
C218        C  0.04611271  0.13867899  0.56092730     0.08500
C219        C  0.03020223  0.19193880  0.56241328    -0.04600
H220        H  0.08362492  0.08803191  0.58890770     0.09200
H221        H  0.00766318  0.21475236  0.54927881     0.10400
Cu222      Cu  0.07600329  0.17144818  0.63275343     0.44200
Cu223      Cu  0.02564715  0.28308139  0.59956754     0.42000
Cu224      Cu  0.02419193  0.28371469  0.66501962     0.43900
N225        N  0.05734246  0.16758375  0.66847293    -0.33200
N226        N  0.03641779  0.20772610  0.68042309    -0.27500
C227        C  0.02190973  0.18929016  0.70214986    -0.03600
C228        C  0.03454186  0.13521158  0.70370617     0.08600
C229        C  0.05670989  0.12282818  0.68210935     0.02400
H230        H  0.00146142  0.21279416  0.71532910     0.10100
H231        H  0.06854872  0.08348187  0.67618815     0.09200
N232        N  0.01736235  0.35246792  0.64336639    -0.34700
N233        N  0.01772862  0.35173541  0.61985779    -0.26900
C234        C  0.01469307  0.40241398  0.61136854    -0.02100
C235        C  0.01232077  0.43694778  0.63026764     0.06500
C236        C  0.01400253  0.40387324  0.65035545     0.04600
H237        H  0.01512184  0.41342794  0.59270362     0.09700
H238        H  0.01377801  0.41606447  0.66869176     0.08500
N239        N  0.18572260  0.96992559  0.82021987    -0.25800
N240        N  0.14746580  0.94333856  0.83163823    -0.33700
C241        C  0.10321517  0.94248803  0.81798544     0.02500
C242        C  0.11405404  0.96957591  0.79699556     0.08500
C243        C  0.16660844  0.98661353  0.79892263    -0.04600
H244        H  0.06490360  0.92650040  0.82361471     0.09200
H245        H  0.18836619  0.01168920  0.78638733     0.10400
Cu246      Cu  0.15159866  0.91945269  0.86710320     0.44200
Cu247      Cu  0.25980282  0.98733835  0.83550327     0.42000
Cu248      Cu  0.25428374  0.98374607  0.90004114     0.43900
N249        N  0.14804373  0.92810924  0.90362539    -0.33200
N250        N  0.18266618  0.95793442  0.91525818    -0.27500
C251        C  0.16174463  0.97002503  0.93653602    -0.03600
C252        C  0.11145727  0.94654598  0.93843699     0.08600
C253        C  0.10514958  0.91872464  0.91747492     0.02400
H254        H  0.18013869  0.99688416  0.94905219     0.10100
H255        H  0.06970647  0.89756528  0.91172131     0.09200
N256        N  0.32447864  0.99540386  0.88069772    -0.34700
N257        N  0.32688485  0.99651075  0.85722627    -0.26900
C258        C  0.37855187  0.00126737  0.85056335    -0.02100
C259        C  0.41015047  0.00305149  0.87085686     0.06500
C260        C  0.37440813  0.99934423  0.88953922     0.04600
H261        H  0.39195072  0.00213889  0.83231448     0.09700
H262        H  0.38414260  0.99829267  0.90827195     0.08500
C263        C  0.00757417  0.52838035  0.64724624    -0.15000
C264        C  0.01035496  0.49632060  0.62832360    -0.30200
H265        H  0.00617120  0.51082132  0.66500088     0.14000
H266        H  0.01094669  0.51392550  0.61057087     0.14600
C267        C  0.50259423  0.00771064  0.85436882    -0.15000
C268        C  0.46927593  0.00610753  0.87312738    -0.30200
H269        H  0.48631309  0.00691567  0.83649633     0.14000
H270        H  0.48560597  0.00698257  0.89098581     0.14600
C271        C  0.50332226  0.99144887  0.14619470    -0.15000
C272        C  0.46898731  0.99370863  0.12777360    -0.30200
H273        H  0.48802703  0.98813373  0.16418506     0.14000
H274        H  0.48438546  0.99718586  0.10981263     0.14600
C275        C  0.01343496  0.51883838  0.37169111    -0.15000
C276        C  0.00873260  0.48526014  0.35332914    -0.30200
H277        H  0.02111171  0.50271888  0.38938946     0.14000
H278        H  0.00153485  0.50134068  0.33558012     0.14600
C279        C  0.96397478  0.91500997  0.27971166    -0.11800
C280        C  0.97727299  0.95002540  0.26576740    -0.13400
C281        C  0.91301566  0.02048472  0.22029978    -0.11800
C282        C  0.94875835  0.00939595  0.23407364    -0.13400
C283        C  0.02088886  0.07717882  0.27730278    -0.11800
C284        C  0.00887949  0.04097189  0.26426582    -0.13400
C285        C  0.07513397  0.96526907  0.22189878    -0.11800
C286        C  0.03953365  0.97802300  0.23524063    -0.13400
C287        C  0.94853785  0.02804029  0.76612499    -0.11800
C288        C  0.91273965  0.03863383  0.77969999    -0.13400
C289        C  0.07527555  0.98478936  0.77909539    -0.11800
C290        C  0.03968571  0.99789990  0.76558010    -0.13400
C291        C  0.96635807  0.93452970  0.72164017    -0.11800
C292        C  0.97828911  0.96978950  0.73518021    -0.13400
C293        C  0.00845184  0.06102683  0.73580594    -0.11800
C294        C  0.02034017  0.09698987  0.72212574    -0.13400
loop_ 
_geom_bond_atom_site_label_1 
_geom_bond_atom_site_label_2 
_geom_bond_distance 
_geom_bond_site_symmetry_2 
_ccdc_geom_bond_type 
N1            C6   1.359       .  A
N1            C5   1.360   1_445  A
N1           H33   1.035       .  S
N2            C9   1.356       .  A
N2           C10   1.356       .  A
N3            C8   1.358       .  A
N3            C7   1.360   1_445  A
N3           H34   1.036   1_545  S
N4           C11   1.352       .  A
N4           C12   1.352       .  A
C5           C13   1.391       .  A
C5           C21   1.431       .  A
C6           C22   1.423       .  A
C6           C14   1.382   1_455  A
C7           C15   1.391       .  A
C7           C24   1.429       .  A
C8           C23   1.422       .  A
C8           C16   1.383   1_455  A
C9           C21   1.424       .  A
C9           C17   1.387       .  A
C10          C24   1.424       .  A
C10          C18   1.387       .  A
C11          C19   1.386       .  A
C11          C22   1.412       .  A
C12          C20   1.386       .  A
C12          C23   1.412       .  A
C13          C14   1.365   1_565  A
C13          H25   1.074       .  S
C14          H26   1.081       .  S
C15          C16   1.365   1_565  A
C15          H27   1.074       .  S
C16          H28   1.081       .  S
C17          C18   1.371       .  A
C17          H29   1.081       .  S
C18          H30   1.081       .  S
C19          C20   1.371       .  A
C19          H31   1.082       .  S
C20          H32   1.082       .  S
C21         C204   1.501       .  S
C22         C218   1.494       .  S
C23         C122   1.494       .  S
C24          C50   1.501       .  S
C35         C287   1.471       .  S
C35         C290   1.472   1_645  S
C35         C292   1.473   1_545  S
C35         C293   1.471   1_655  S
C36         C280   1.474       .  S
C36         C282   1.472   1_565  S
C36         C284   1.473   1_665  S
C36         C286   1.474   1_655  S
N37          C41   1.348       .  A
N37          N38   1.323       .  A
N37         Cu45   2.083       .  S
N38          C39   1.347       .  A
N38         Cu44   2.083       .  S
C39          C40   1.381       .  A
C39          H42   1.082       .  S
C40          C41   1.383       .  A
C40         C279   1.444       .  S
C41          H43   1.082       .  S
Cu44         N47   2.080       .  S
Cu45         N55   2.083       .  S
Cu46         N48   2.082       .  S
Cu46         N54   2.084   1_655  S
N47          C51   1.344       .  A
N47          N48   1.320       .  A
N48          C49   1.347       .  A
C49          C50   1.389       .  A
C49          H52   1.082   1_655  S
C50          C51   1.389       .  A
C51          H53   1.081       .  S
N54          C58   1.346       .  A
N54          N55   1.323   1_455  A
N55          C56   1.348       .  A
C56          C57   1.388   1_655  A
C56          H59   1.081       .  S
C57          C58   1.383       .  A
C57         C275   1.483       .  S
C58          H60   1.082       .  S
N61          C66   1.358       .  A
N61          C65   1.358   1_554  A
N61          H93   1.036       .  S
N62          C69   1.357   1_655  A
N62          C70   1.356   1_565  A
N63          C68   1.357       .  A
N63          C67   1.357   1_554  A
N63          H94   1.038   1_545  S
N64          C71   1.357   1_655  A
N64          C72   1.356   1_565  A
C65          C73   1.387       .  A
C65          C81   1.422       .  A
C66          C82   1.423       .  A
C66          C74   1.387       .  A
C67          C75   1.387       .  A
C67          C84   1.419       .  A
C68          C83   1.419       .  A
C68          C76   1.387       .  A
C69          C81   1.426       .  A
C69          C77   1.387       .  A
C70          C84   1.424       .  A
C70          C78   1.385   1_545  A
C71          C79   1.387       .  A
C71          C82   1.425       .  A
C72          C80   1.386   1_545  A
C72          C83   1.424       .  A
C73          C74   1.372   1_556  A
C73          H85   1.082       .  S
C74          H86   1.082       .  S
C75          C76   1.372   1_556  A
C75          H87   1.082       .  S
C76          H88   1.082       .  S
C77          C78   1.362   1_455  A
C77          H89   1.077       .  S
C78          H90   1.079   1_565  S
C79          C80   1.362   1_455  A
C79          H91   1.077       .  S
C80          H92   1.079       .  S
C81         C252   1.499       .  S
C82         C146   1.499       .  S
C83         C108   1.496       .  S
C84         C170   1.497       .  S
N95          C99   1.348       .  A
N95          N96   1.322       .  A
N95        Cu103   2.080       .  S
N96          C97   1.346       .  A
N96        Cu102   2.076       .  S
C97          C98   1.380       .  A
C97         H100   1.082       .  S
C98          C99   1.383       .  A
C98         C281   1.442       .  S
C99         H101   1.082   1_545  S
Cu102       N105   2.073       .  S
Cu103       N113   2.081       .  S
Cu104       N106   2.086       .  S
Cu104       N112   2.087       .  S
N105        C109   1.343       .  A
N105        N106   1.322       .  A
N106        C107   1.348       .  A
C107        C108   1.388       .  A
C107        H110   1.082   1_545  S
C108        C109   1.385       .  A
C109        H111   1.082       .  S
N112        C116   1.347   1_545  A
N112        N113   1.323       .  A
N113        C114   1.346   1_545  A
C114        C115   1.383       .  A
C114        H117   1.082       .  S
C115        C116   1.389       .  A
C115        C271   1.484       .  S
C116        H118   1.081       .  S
N119        C123   1.349       .  A
N119        N120   1.321       .  A
N119       Cu127   2.084       .  S
N120        C121   1.341       .  A
N120       Cu126   2.066       .  S
C121        C122   1.384       .  A
C121        H124   1.082       .  S
C122        C123   1.389       .  A
C123        H125   1.082       .  S
Cu126       N129   2.068       .  S
Cu127       N137   2.085       .  S
Cu128       N130   2.090       .  S
Cu128       N136   2.091       .  S
N129        C133   1.345       .  A
N129        N130   1.322       .  A
N130        C131   1.350       .  A
C131        C132   1.385       .  A
C131        H134   1.082   1_455  S
C132        C133   1.379       .  A
C132        C283   1.443       .  S
C133        H135   1.082       .  S
N136        C140   1.347       .  A
N136        N137   1.324       .  A
N137        C138   1.347       .  A
C138        C139   1.387       .  A
C138        H141   1.081       .  S
C139        C140   1.385       .  A
C139        C276   1.484       .  S
C140        H142   1.082       .  S
N143        C147   1.347       .  A
N143        N144   1.320       .  A
N143       Cu151   2.079       .  S
N144        C145   1.345       .  A
N144       Cu150   2.076       .  S
C145        C146   1.389       .  A
C145        H148   1.082       .  S
C146        C147   1.388       .  A
C147        H149   1.082       .  S
Cu150       N153   2.079       .  S
Cu151       N161   2.080       .  S
Cu152       N154   2.089       .  S
Cu152       N160   2.089       .  S
N153        C157   1.345       .  A
N153        N154   1.324       .  A
N154        C155   1.349       .  A
C155        C156   1.384       .  A
C155        H158   1.082       .  S
C156        C157   1.379       .  A
C156        C285   1.444       .  S
C157        H159   1.082       .  S
N160        C164   1.349       .  A
N160        N161   1.323       .  A
N161        C162   1.344       .  A
C162        C163   1.381       .  A
C162        H165   1.082       .  S
C163        C164   1.389       .  A
C163        C272   1.482       .  S
C164        H166   1.081       .  S
N167        C171   1.349       .  A
N167        N168   1.321       .  A
N167       Cu175   2.086       .  S
N168        C169   1.343       .  A
N168       Cu174   2.070       .  S
C169        C170   1.386       .  A
C169        H172   1.082       .  S
C170        C171   1.388       .  A
C171        H173   1.082       .  S
Cu174       N177   2.073       .  S
Cu175       N185   2.086       .  S
Cu176       N178   2.084       .  S
Cu176       N184   2.085       .  S
N177        C181   1.345       .  A
N177        N178   1.323       .  A
N178        C179   1.348       .  A
C179        C180   1.383       .  A
C179        H182   1.082       .  S
C180        C181   1.379       .  A
C180        C288   1.441       .  S
C181        H183   1.082       .  S
N184        C188   1.347       .  A
N184        N185   1.323       .  A
N185        C186   1.347       .  A
C186        C187   1.388       .  A
C186        H189   1.081       .  S
C187        C188   1.384       .  A
C187        C267   1.484       .  S
C188        H190   1.082       .  S
N191        C195   1.347       .  A
N191        N192   1.323       .  A
N191       Cu199   2.076       .  S
N192        C193   1.347       .  A
N192       Cu198   2.083       .  S
C193        C194   1.382       .  A
C193        H196   1.082       .  S
C194        C195   1.381       .  A
C194        C291   1.443       .  S
C195        H197   1.082       .  S
Cu198       N201   2.079       .  S
Cu199       N209   2.077       .  S
Cu200       N202   2.087       .  S
Cu200       N208   2.089   1_655  S
N201        C205   1.344       .  A
N201        N202   1.321       .  A
N202        C203   1.348       .  A
C203        C204   1.390       .  A
C203        H206   1.082   1_655  S
C204        C205   1.388       .  A
C205        H207   1.081       .  S
N208        C212   1.348       .  A
N208        N209   1.323   1_455  A
N209        C210   1.346       .  A
C210        C211   1.383   1_655  A
C210        H213   1.082       .  S
C211        C212   1.389       .  A
C211        C263   1.483       .  S
C212        H214   1.081       .  S
N215        C219   1.348       .  A
N215        N216   1.320       .  A
N215       Cu223   2.082       .  S
N216        C217   1.342       .  A
N216       Cu222   2.065       .  S
C217        C218   1.385       .  A
C217        H220   1.082       .  S
C218        C219   1.389       .  A
C219        H221   1.082       .  S
Cu222       N225   2.067       .  S
Cu223       N233   2.083       .  S
Cu224       N226   2.091       .  S
Cu224       N232   2.093       .  S
N225        C229   1.343       .  A
N225        N226   1.323       .  A
N226        C227   1.350       .  A
C227        C228   1.385       .  A
C227        H230   1.082       .  S
C228        C229   1.377       .  A
C228        C294   1.441       .  S
C229        H231   1.082       .  S
N232        C236   1.349       .  A
N232        N233   1.324       .  A
N233        C234   1.345       .  A
C234        C235   1.381       .  A
C234        H237   1.082       .  S
C235        C236   1.389       .  A
C235        C264   1.482       .  S
C236        H238   1.081       .  S
N239        C243   1.349       .  A
N239        N240   1.324       .  A
N239       Cu247   2.087       .  S
N240        C241   1.345       .  A
N240       Cu246   2.077       .  S
C241        C242   1.379       .  A
C241        H244   1.082       .  S
C242        C243   1.383       .  A
C242        C289   1.442       .  S
C243        H245   1.082   1_565  S
Cu246       N249   2.074       .  S
Cu247       N257   2.086       .  S
Cu248       N250   2.081       .  S
Cu248       N256   2.083       .  S
N249        C253   1.344       .  A
N249        N250   1.320       .  A
N250        C251   1.347       .  A
C251        C252   1.389       .  A
C251        H254   1.082       .  S
C252        C253   1.388       .  A
C253        H255   1.082       .  S
N256        C260   1.345       .  A
N256        N257   1.323       .  A
N257        C258   1.349   1_565  A
C258        C259   1.389       .  A
C258        H261   1.081       .  S
C259        C260   1.383   1_545  A
C259        C268   1.483       .  S
C260        H262   1.082       .  S
C263        C264   1.345       .  D
C263        H265   1.085       .  S
C264        H266   1.085       .  S
C267        C268   1.346       .  D
C267        H269   1.085       .  S
C268        H270   1.085       .  S
C271        C272   1.345       .  D
C271        H273   1.085       .  S
C272        H274   1.085       .  S
C275        C276   1.346       .  D
C275        H277   1.085       .  S
C276        H278   1.085       .  S
C279        C280   1.211       .  T
C281        C282   1.210       .  T
C283        C284   1.210       .  T
C285        C286   1.211       .  T
C287        C288   1.209       .  T
C289        C290   1.210       .  T
C291        C292   1.210       .  T
C293        C294   1.209       .  T
