geometry optimzed in LAMMPS
_audit_creation_date              2020-11-30 
_audit_creation_method            'lammps2cif' 
_symmetry_space_group_name_H-M    'P1' 
_symmetry_Int_Tables_number       1 
_symmetry_cell_setting            triclinic 
loop_ 
_symmetry_equiv_pos_as_xyz 
  x,y,z 
_cell_length_a                    28.67851597 
_cell_length_b                    76.30559536526724 
_cell_length_c                    27.86382728766707 
_cell_angle_alpha                 89.72569673749541 
_cell_angle_beta                  91.99275705523809 
_cell_angle_gamma                 90.06596075454374 
loop_ 
_atom_site_label 
_atom_site_type_symbol 
_atom_site_fract_x 
_atom_site_fract_y 
_atom_site_fract_z 
_atom_site_charge 
C1          C  0.31878613  0.34032560  0.47339569     0.80700
N2          N  0.29163501  0.32567309  0.47085203    -0.77600
C3          C  0.24462958  0.32710716  0.46325335     0.83200
N4          N  0.22501122  0.34320875  0.45834023    -0.77500
C5          C  0.25158925  0.35786032  0.46226874     0.83300
N6          N  0.29838750  0.35639306  0.46996313    -0.79200
C7          C  0.32937547  0.62933331  0.47973368     0.80700
N8          N  0.31029031  0.61310125  0.47474885    -0.77600
C9          C  0.26401960  0.61127292  0.46452960     0.83200
N10         N  0.23659217  0.62566832  0.46028076    -0.77500
C11         C  0.25502575  0.64189060  0.46670207     0.83300
N12         N  0.30153508  0.64370915  0.47627471    -0.79200
C13         C  0.66859144  0.62881022  0.51452996     0.80700
N14         N  0.69112352  0.64448385  0.51214461    -0.77600
C15         C  0.73850533  0.64498823  0.51400744     0.83200
N16         N  0.76311266  0.62989322  0.51925153    -0.77500
C17         C  0.74089898  0.61429539  0.52202745     0.83300
N18         N  0.69367678  0.61375895  0.51902630    -0.79200
O19         O  0.95705918  0.50518308  0.51931367    -0.72400
O20         O  0.05233243  0.46797668  0.49718012    -0.73400
O21         O  0.05267913  0.50484845  0.49795070    -0.62000
O22         O  0.95695044  0.46764723  0.51837162    -0.70400
O23         O  0.93644091  0.46830926  0.44076480    -0.70000
O24         O  0.03317473  0.50541672  0.42013026    -0.61200
O25         O  0.03205388  0.46788229  0.41952043    -0.73700
O26         O  0.93697461  0.50526173  0.44158458    -0.72500
Cu27       Cu  0.00530714  0.48643810  0.51092787     1.04600
Cu28       Cu  0.98407024  0.48677693  0.42770922     1.04300
C29         C  0.93209294  0.51108651  0.48397513     0.93800
C30         C  0.05663127  0.46186038  0.45501082     0.92900
C31         C  0.05812293  0.51097114  0.45581766     0.85100
C32         C  0.93225741  0.46188703  0.48278630     0.91300
C33         C  0.66031293  0.34353286  0.48235389     0.80700
N34         N  0.68440172  0.35881799  0.47907555    -0.77600
C35         C  0.73157059  0.35898417  0.48361075     0.83200
N36         N  0.75491825  0.34370653  0.49058111    -0.77500
C37         C  0.73151670  0.32826263  0.49323021     0.83300
N38         N  0.68400480  0.32819493  0.48959977    -0.79200
C39         C  0.99283076  0.20824596  0.57460137     0.87000
C40         C  0.03512302  0.22038755  0.56890517    -0.53200
C41         C  0.03437556  0.22985362  0.52713718     0.09900
C42         C  0.99108636  0.22614679  0.49460237     0.20900
C43         C  0.94999780  0.22026389  0.56792137    -0.54000
C44         C  0.94927607  0.22986469  0.52635614     0.10000
C45         C  0.99193702  0.19679510  0.52918812    -0.53500
C46         C  0.99120444  0.20611829  0.48704139     0.10600
H47         H  0.06286615  0.22154181  0.59623793     0.15100
H48         H  0.99008361  0.23369628  0.46056410     0.00900
H49         H  0.92413307  0.22178714  0.59513226     0.15400
H50         H  0.99279119  0.18264529  0.53003201     0.15200
C51         C  0.00628106  0.76152851  0.57019096     0.87000
C52         C  0.96348399  0.74952374  0.56433642    -0.53200
C53         C  0.96306164  0.73964920  0.52355397     0.09900
C54         C  0.00547001  0.74281230  0.49236895     0.20900
C55         C  0.04871829  0.74939443  0.56676225    -0.54000
C56         C  0.04816428  0.73950275  0.52604694     0.10000
C57         C  0.00609658  0.77239846  0.52373367    -0.53500
C58         C  0.00603533  0.76265348  0.48279449     0.10600
H59         H  0.93677962  0.74859559  0.59091199     0.15100
H60         H  0.00516615  0.73488844  0.45916640     0.00900
H61         H  0.07624993  0.74855272  0.59443594     0.15400
H62         H  0.00592348  0.78655591  0.52330552     0.15200
N63         N  0.01413806  0.12063969  0.93402975    -0.26800
N64         N  0.01634198  0.13586603  0.95653899    -0.34600
C65         C  0.01643835  0.14881785  0.92341435     0.01600
C66         C  0.01434657  0.14133073  0.87805683     0.07600
C67         C  0.01301824  0.12347016  0.88637905    -0.05500
H68         H  0.01765162  0.16262495  0.93179695     0.08300
H69         H  0.01064086  0.11321144  0.85973650     0.09500
Cu70       Cu  0.01793773  0.13828401  0.03144003     0.44200
Cu71       Cu  0.01074926  0.09639842  0.96741756     0.42000
Cu72       Cu  0.00960941  0.09676747  0.09517804     0.43900
N73         N  0.01444996  0.13613122  0.10619626    -0.34200
N74         N  0.01114395  0.12089211  0.12863952    -0.28400
C75         C  0.00784192  0.12365046  0.17595188    -0.04500
C76         C  0.00924625  0.14148957  0.18420047     0.07700
C77         C  0.01355977  0.14904476  0.13909336     0.01500
H78         H  0.00424472  0.11334555  0.20238044     0.09200
H79         H  0.01507712  0.16287326  0.13066347     0.08200
N80         N  0.00361260  0.07403655  0.05543447    -0.35600
N81         N  0.00362893  0.07385531  0.00805891    -0.27800
C82         C  0.99818289  0.05725984  0.99278837    -0.03000
C83         C  0.99472762  0.04648584  0.03265883     0.05600
C84         C  0.99838459  0.05758123  0.07173033     0.03700
H85         H  0.99699387  0.05338478  0.95547909     0.08800
H86         H  0.99703151  0.05400811  0.10928798     0.07600
N87         N  0.97935347  0.84323448  0.92809250    -0.26800
N88         N  0.98424052  0.82884968  0.95436801    -0.34600
C89         C  0.99055899  0.81510628  0.92544839     0.01600
C90         C  0.98972322  0.82113194  0.87867224     0.07600
C91         C  0.98252527  0.83902649  0.88160069    -0.05500
H92         H  0.99588552  0.80176941  0.93775259     0.08300
H93         H  0.98004712  0.84837219  0.85230770     0.09500
Cu94       Cu  0.98393755  0.82831533  0.02803245     0.44200
Cu95       Cu  0.97028997  0.86798717  0.95625664     0.42000
Cu96       Cu  0.98082045  0.87009243  0.08596388     0.43900
N97         N  0.98921042  0.83125614  0.10120993    -0.34200
N98         N  0.98859829  0.84663888  0.12266063    -0.28400
C99         C  0.99391431  0.84419414  0.17027835    -0.04500
C100        C  0.99791306  0.82639204  0.17903530     0.07700
C101        C  0.99472729  0.81856619  0.13443504     0.01500
H102        H  0.99469243  0.85461555  0.19646961     0.09200
H103        H  0.99670648  0.80474093  0.12647731     0.08200
N104        N  0.97415413  0.89182851  0.04178506    -0.35600
N105        N  0.96991465  0.89116415  0.99445319    -0.27800
C106        C  0.96733587  0.90759515  0.97687266    -0.03000
C107        C  0.97020507  0.91912233  0.01505819     0.05600
C108        C  0.97446863  0.90864717  0.05563117     0.03700
H109        H  0.96446451  0.91087562  0.93906313     0.08800
H110        H  0.97811962  0.91285220  0.09258329     0.07600
C111        C  0.98469767  0.99698864  0.05407397     0.16500
C112        C  0.98437867  0.98004856  0.07342348    -0.32600
C113        C  0.97791754  0.96608348  0.04148359     0.20900
C114        C  0.97172853  0.96879519  0.99244359     0.03100
C115        C  0.97186137  0.98577798  0.97305331    -0.22300
C116        C  0.97870768  0.99976974  0.00502733     0.12200
S117        S  0.99311667  0.01558668  0.08683391    -0.06000
C118        C  0.98907656  0.02730750  0.03388128    -0.09400
C119        C  0.98116341  0.01718224  0.99318284    -0.26000
S120        S  0.96518683  0.94999531  0.95988280    -0.03200
C121        C  0.97098553  0.93840189  0.01300569    -0.16700
C122        C  0.97746523  0.94870975  0.05348970    -0.14700
H123        H  0.98940071  0.97783588  0.11167446     0.20700
H124        H  0.96734624  0.98797607  0.93474942     0.16700
H125        H  0.97771933  0.02223416  0.95686365     0.19200
H126        H  0.98210393  0.94381152  0.08985438     0.12600
C127        C  0.00555855  0.79376061  0.67709027     0.16500
C128        C  0.00366731  0.80843338  0.70662340    -0.32600
C129        C  0.00171061  0.80550912  0.75599758     0.20900
C130        C  0.00224234  0.78873506  0.77538896     0.03100
C131        C  0.00450592  0.77399533  0.74573776    -0.22300
C132        C  0.00586291  0.77693849  0.69609205     0.12200
S133        S  0.00632892  0.79472780  0.61632438    -0.06000
C134        C  0.00668648  0.77211823  0.61579834    -0.09400
C135        C  0.00662789  0.76443314  0.66104921    -0.26000
S136        S  0.99850076  0.78812234  0.83631825    -0.03200
C137        C  0.99555091  0.81068912  0.83522403    -0.16700
C138        C  0.99799034  0.81814047  0.79007365    -0.14700
H139        H  0.00295856  0.82156746  0.69168068     0.20700
H140        H  0.00445777  0.76085465  0.76059842     0.16700
H141        H  0.00657305  0.75043905  0.66773050     0.19200
H142        H  0.99656160  0.83204896  0.78233334     0.12600
C143        C  0.01290128  0.81022707  0.30848946     0.16500
C144        C  0.01733937  0.80878655  0.35835454    -0.32600
C145        C  0.01315771  0.79206985  0.37843723     0.20900
C146        C  0.00557383  0.77734105  0.35037849     0.03100
C147        C  0.00195234  0.77872303  0.30024353    -0.22300
C148        C  0.00551293  0.79553431  0.28010031     0.12200
S149        S  0.01383509  0.82953539  0.27779562    -0.06000
C150        C  0.00396461  0.81775528  0.22597175    -0.09400
C151        C  0.00071454  0.79977307  0.23246350    -0.26000
S152        S  0.99986771  0.75839127  0.38240471    -0.03200
C153        C  0.00738549  0.77053197  0.43418521    -0.16700
C154        C  0.01455872  0.78827849  0.42622596    -0.14700
H155        H  0.02267674  0.82025562  0.38063117     0.20700
H156        H  0.99560301  0.76729903  0.27805073     0.16700
H157        H  0.99395104  0.79035291  0.20414027     0.19200
H158        H  0.02036427  0.79812105  0.45354923     0.12600
C159        C  0.00938507  0.15794110  0.74726521     0.16500
C160        C  0.00804454  0.15964784  0.69710052    -0.32600
C161        C  0.00254043  0.17653680  0.67758218     0.20900
C162        C  0.99886687  0.19108743  0.70670595     0.03100
C163        C  0.00033224  0.18939657  0.75692267    -0.22300
C164        C  0.00563307  0.17249457  0.77646672     0.12200
S165        S  0.01502208  0.13857238  0.77776485    -0.06000
C166        C  0.01237841  0.15014598  0.83063884    -0.09400
C167        C  0.00745476  0.16811549  0.82437828    -0.26000
S168        S  0.99287348  0.21039884  0.67597844    -0.03200
C169        C  0.99483296  0.19881914  0.62289519    -0.16700
C170        C  0.00024095  0.18082450  0.62966290    -0.14700
H171        H  0.01095181  0.14827964  0.67424320     0.20700
H172        H  0.99737813  0.20076537  0.77977384     0.16700
H173        H  0.00484982  0.17748003  0.85324640     0.19200
H174        H  0.00309944  0.17120700  0.60161136     0.12600
C175        C  0.00201926  0.19048897  0.35584606     0.16500
C176        C  0.00903203  0.18898852  0.30639687    -0.32600
C177        C  0.00516410  0.17224168  0.28590193     0.20900
C178        C  0.99481613  0.15766944  0.31348752     0.03100
C179        C  0.98765334  0.15918453  0.36280829    -0.22300
C180        C  0.99154496  0.17590871  0.38324305     0.12200
S181        S  0.00560709  0.20954206  0.38773260    -0.06000
C182        C  0.99297034  0.19779015  0.43880401    -0.09400
C183        C  0.98621876  0.17997414  0.43063108    -0.26000
S184        S  0.99219582  0.13850390  0.28227865    -0.03200
C185        C  0.00506633  0.15016702  0.23121885    -0.16700
C186        C  0.01094822  0.16803147  0.23855522    -0.14700
H187        H  0.01729713  0.20035942  0.28489305     0.20700
H188        H  0.97961056  0.14780490  0.38436425     0.16700
H189        H  0.97779176  0.17037132  0.45764679     0.19200
H190        H  0.01930660  0.17742366  0.21089859     0.12600
C191        C  0.79142871  0.28365269  0.51720963     0.16500
C192        C  0.80522607  0.26676135  0.53249001    -0.32600
C193        C  0.85022074  0.26107417  0.52106936     0.20900
C194        C  0.87953615  0.27163217  0.49494252     0.03100
C195        C  0.86603965  0.28847505  0.48027437    -0.22300
C196        C  0.82169703  0.29424623  0.49236017     0.12200
S197        S  0.73858505  0.29328732  0.52714579    -0.06000
C198        C  0.75839791  0.31184852  0.49860885    -0.09400
C199        C  0.80321637  0.31039104  0.48208841    -0.26000
S200        S  0.93230994  0.26257930  0.48413331    -0.03200
C201        C  0.91586518  0.24438063  0.51612435    -0.16700
C202        C  0.87107740  0.24538782  0.53372405    -0.14700
H203        H  0.78214596  0.25850327  0.55264616     0.20700
H204        H  0.88934209  0.29680916  0.46059387     0.16700
H205        H  0.82140356  0.32065891  0.46332066     0.19200
H206        H  0.85481973  0.23528993  0.55486012     0.12600
C207        C  0.86612214  0.41969015  0.50920606     0.16500
C208        C  0.85326382  0.40289340  0.52423716    -0.32600
C209        C  0.81398595  0.39524875  0.50153076     0.20900
C210        C  0.78776796  0.40409769  0.46638086     0.03100
C211        C  0.80101919  0.42083172  0.45083854    -0.22300
C212        C  0.84112282  0.42828850  0.47266965     0.12200
S213        S  0.91349417  0.43091986  0.53138745    -0.06000
C214        C  0.90053235  0.44710167  0.48987751    -0.09400
C215        C  0.86107285  0.44400707  0.46100453    -0.26000
S216        S  0.74039916  0.39268318  0.44448896    -0.03200
C217        C  0.75722692  0.37562297  0.48188725    -0.16700
C218        C  0.79698858  0.37880688  0.51010424    -0.14700
H219        H  0.87336108  0.39599220  0.55191573     0.20700
H220        H  0.78134809  0.42762204  0.42264255     0.16700
H221        H  0.84823287  0.45263375  0.43258437     0.19200
H222        H  0.81232584  0.36963309  0.53583904     0.12600
C223        C  0.88614668  0.70014627  0.49053960     0.16500
C224        C  0.87018785  0.68345438  0.47782961    -0.32600
C225        C  0.82594049  0.67853578  0.49257780     0.20900
C226        C  0.79772082  0.68993335  0.51710050     0.03100
C227        C  0.81357035  0.70677597  0.52939024    -0.22300
C228        C  0.85880929  0.71144245  0.51637275     0.12200
S229        S  0.94053946  0.70778473  0.47988112    -0.06000
C230        C  0.92735853  0.72618860  0.51212255    -0.09400
C231        C  0.88234799  0.72646718  0.52893144    -0.26000
S232        S  0.74592206  0.68096751  0.53361695    -0.03200
C233        C  0.76380463  0.66154790  0.50902565    -0.16700
C234        C  0.80671755  0.66226201  0.48795992    -0.14700
H235        H  0.89217632  0.67439406  0.45913535     0.20700
H236        H  0.79244089  0.71554357  0.55000020     0.16700
H237        H  0.86798591  0.73686615  0.55019078     0.19200
H238        H  0.82369844  0.65123485  0.47154269     0.12600
C239        C  0.82709746  0.57641618  0.53699354     0.16500
C240        C  0.86629596  0.56586511  0.54642873    -0.32600
C241        C  0.86876921  0.54994148  0.52181835     0.20900
C242        C  0.83378964  0.54474446  0.48926469     0.03100
C243        C  0.79377332  0.55498398  0.48122129    -0.22300
C244        C  0.79131307  0.57091165  0.50579149     0.12200
S245        S  0.82015558  0.59706622  0.55874205    -0.06000
C246        C  0.76820328  0.59813447  0.52604405    -0.09400
C247        C  0.75682904  0.58320859  0.50019122    -0.26000
S248        S  0.84555379  0.52589056  0.45936170    -0.03200
C249        C  0.89759711  0.52481701  0.49188351    -0.16700
C250        C  0.90518899  0.53835214  0.52411617    -0.14700
H251        H  0.89441846  0.57016924  0.57053452     0.20700
H252        H  0.76653426  0.55101598  0.45562507     0.16700
H253        H  0.72637280  0.58185875  0.47638578     0.19200
H254        H  0.93652598  0.53998979  0.54649115     0.12600
C255        C  0.45950642  0.64041288  0.49487373     0.16500
C256        C  0.50369863  0.64831797  0.49715803    -0.32600
C257        C  0.54261088  0.63728386  0.50312221     0.20900
C258        C  0.53764400  0.61924681  0.50682222     0.03100
C259        C  0.49362164  0.61138275  0.50457565    -0.22300
C260        C  0.45487680  0.62236532  0.49841932     0.12200
S261        S  0.40783473  0.65131609  0.48678106    -0.06000
C262        C  0.37999794  0.63128095  0.48780182    -0.09400
C263        C  0.40945140  0.61705731  0.49443100    -0.26000
S264        S  0.58869901  0.60804992  0.51356681    -0.03200
C265        C  0.61741124  0.62784557  0.51130587    -0.16700
C266        C  0.58851638  0.64233305  0.50566926    -0.14700
H267        H  0.50758600  0.66238360  0.49410749     0.20700
H268        H  0.48975455  0.59730151  0.50717247     0.16700
H269        H  0.39830360  0.60350474  0.49562202     0.19200
H270        H  0.60040751  0.65577002  0.50334388     0.12600
C271        C  0.15886969  0.67642737  0.46563305     0.16500
C272        C  0.11621955  0.68525333  0.46319091    -0.32600
C273        C  0.11413217  0.70160231  0.48544541     0.20900
C274        C  0.15272656  0.70897354  0.50891839     0.03100
C275        C  0.19582750  0.70031219  0.51039310    -0.22300
C276        C  0.19787184  0.68385105  0.48833787     0.12200
S277        S  0.16711901  0.65579105  0.44469723    -0.06000
C278        C  0.22386436  0.65711838  0.46658879    -0.09400
C279        C  0.23562016  0.67287829  0.48842286    -0.26000
S280        S  0.14168563  0.72843006  0.53636251    -0.03200
C281        C  0.08456480  0.72656783  0.51556357    -0.16700
C282        C  0.07520261  0.71169457  0.48871687    -0.14700
H283        H  0.08560128  0.67939828  0.44592566     0.20700
H284        H  0.22602783  0.70590770  0.52906132     0.16700
H285        H  0.26920246  0.67579542  0.50554192     0.19200
H286        H  0.04138846  0.70807078  0.47353725     0.12600
C287        C  0.20833456  0.56627016  0.47762677     0.16500
C288        C  0.18970615  0.55072671  0.49575875    -0.32600
C289        C  0.15298019  0.54287209  0.46922303     0.20900
C290        C  0.13656121  0.54979366  0.42572778     0.03100
C291        C  0.15523101  0.56532147  0.40756230    -0.22300
C292        C  0.19078076  0.57352242  0.43495848     0.12200
S293        S  0.25040572  0.57856873  0.50632735    -0.06000
C294        C  0.24281689  0.59388873  0.46129556    -0.09400
C295        C  0.21023020  0.58948806  0.42562405    -0.26000
S296        S  0.09089735  0.53855130  0.39971255    -0.03200
C297        C  0.09293375  0.52476571  0.44880255    -0.16700
C298        C  0.12792340  0.52853478  0.48274237    -0.14700
H299        H  0.20214614  0.54533511  0.52987676     0.20700
H300        H  0.14148898  0.57109594  0.37442727     0.16700
H301        H  0.20023279  0.59781528  0.39540540     0.19200
H302        H  0.13396921  0.52141011  0.51609730     0.12600
C303        C  0.52827918  0.35212717  0.47631177     0.16500
C304        C  0.48380144  0.35970103  0.47491326    -0.32600
C305        C  0.44529243  0.34845629  0.47725924     0.20900
C306        C  0.45065717  0.33043627  0.48060253     0.03100
C307        C  0.49530094  0.32283730  0.48211824    -0.22300
C308        C  0.53396343  0.33411939  0.48000014     0.12200
S309        S  0.57911451  0.36363329  0.47445965    -0.06000
C310        C  0.60881530  0.34403215  0.47931642    -0.09400
C311        C  0.58024617  0.32936445  0.48168869    -0.26000
S312        S  0.39913908  0.31912423  0.48179180    -0.03200
C313        C  0.37015506  0.33891314  0.47772496    -0.16700
C314        C  0.39936594  0.35339129  0.47586322    -0.14700
H315        H  0.47940230  0.37376559  0.47213592     0.20700
H316        H  0.49969623  0.30877468  0.48481227     0.16700
H317        H  0.59262053  0.31600024  0.48503336     0.19200
H318        H  0.38763311  0.36684417  0.47264031     0.12600
C319        C  0.14968483  0.29169117  0.45948830     0.16500
C320        C  0.10758851  0.28240203  0.45458051    -0.32600
C321        C  0.10331038  0.26687539  0.48123451     0.20900
C322        C  0.13939126  0.26081488  0.51120654     0.03100
C323        C  0.18191182  0.26987797  0.51522412    -0.21900
C324        C  0.18616081  0.28545121  0.48875500     0.12200
S325        S  0.15997949  0.31164782  0.43407213    -0.06000
C326        C  0.21415960  0.31156272  0.46289919    -0.09400
C327        C  0.22361888  0.29667896  0.49022658    -0.26000
S328        S  0.12610202  0.24239776  0.54294665    -0.03200
C329        C  0.07123519  0.24274266  0.51543886    -0.16700
C330        C  0.06437990  0.25647999  0.48308011    -0.14700
H331        H  0.07889218  0.28734541  0.43211919     0.20700
H332        H  0.20998063  0.26526014  0.53902697     0.16700
H333        H  0.25507794  0.29466221  0.51219412     0.19200
H334        H  0.03226071  0.25917310  0.46296264     0.12600
C335        C  0.12422787  0.42013887  0.42792202     0.16500
C336        C  0.13783058  0.40356062  0.41230508    -0.32600
C337        C  0.17532589  0.39543856  0.43710631     0.20900
C338        C  0.19919536  0.40363586  0.47491042     0.03100
C339        C  0.18523640  0.42014337  0.49090954    -0.22300
C340        C  0.14689130  0.42806003  0.46691220     0.12200
S341        S  0.07831336  0.43180797  0.40385009    -0.06000
C342        C  0.08870601  0.44721863  0.44782856    -0.09400
C343        C  0.12636428  0.44356947  0.47877691    -0.26000
S344        S  0.24399395  0.39157917  0.49999682    -0.03200
C345        C  0.22925559  0.37513807  0.46016973    -0.16700
C346        C  0.19206864  0.37897587  0.42889990    -0.14700
H347        H  0.11939487  0.39712071  0.38274336     0.20700
H348        H  0.20289157  0.42638314  0.52127458     0.16700
H349        H  0.13741519  0.45163455  0.50897095     0.19200
H350        H  0.17778169  0.37009802  0.40196072     0.12600
loop_ 
_geom_bond_atom_site_label_1 
_geom_bond_atom_site_label_2 
_geom_bond_distance 
_geom_bond_site_symmetry_2 
_ccdc_geom_bond_type 
C1            N2   1.362       .  A
C1            N6   1.361       .  A
C1          C313   1.478       .  S
N2            C3   1.362       .  A
C3            N4   1.356       .  A
C3          C326   1.472       .  S
N4            C5   1.355       .  A
C5            N6   1.356       .  A
C5          C345   1.466       .  S
C7            N8   1.359       .  A
C7           N12   1.359       .  A
C7          C262   1.469       .  S
N8            C9   1.355       .  A
C9           N10   1.354       .  A
C9          C294   1.460       .  S
N10          C11   1.356       .  A
C11          N12   1.358       .  A
C11         C278   1.467       .  S
C13          N14   1.361       .  A
C13          N18   1.359       .  A
C13         C265   1.469       .  S
N14          C15   1.359       .  A
C15          N16   1.356       .  A
C15         C233   1.465       .  S
N16          C17   1.352       .  A
C17          N18   1.355       .  A
C17         C246   1.463       .  S
O19         Cu27   2.011   1_655  S
O19          C29   1.278       .  A
O20         Cu27   1.999       .  S
O20          C30   1.276       .  A
O21         Cu27   1.994       .  S
O21          C31   1.276       .  A
O22         Cu27   2.009   1_655  S
O22          C32   1.278       .  A
O23         Cu28   2.002       .  S
O23          C32   1.277       .  A
O24         Cu28   2.016   1_455  S
O24          C31   1.278       .  A
O25         Cu28   2.013   1_455  S
O25          C30   1.278       .  A
O26         Cu28   2.002       .  S
O26          C29   1.276       .  A
Cu27        Cu28   2.377   1_455  S
C29         C249   1.464       .  S
C30         C342   1.467       .  S
C31         C297   1.467       .  S
C32         C214   1.465       .  S
C33          N34   1.359       .  A
C33          N38   1.365       .  A
C33         C310   1.477       .  S
N34          C35   1.354       .  A
C35          N36   1.355       .  A
C35         C217   1.468       .  S
N36          C37   1.358       .  A
C37          N38   1.363       .  A
C37         C198   1.476       .  S
C39          C40   1.538   1_655  S
C39          C45   1.541       .  S
C39          C43   1.539       .  S
C39         C169   1.522       .  S
C40          H47   1.086       .  S
C40          C41   1.366       .  D
C41          C42   1.538   1_455  S
C41         C329   1.486       .  S
C42          C46   1.544       .  S
C42          C44   1.542       .  S
C42          H48   1.107       .  S
C43          H49   1.086       .  S
C43          C44   1.367       .  D
C44         C201   1.485       .  S
C45          H50   1.080       .  S
C45          C46   1.370       .  D
C46         C182   1.492       .  S
C51          C52   1.535   1_455  S
C51          C57   1.534       .  S
C51          C55   1.536       .  S
C51         C134   1.509       .  S
C52          H59   1.086       .  S
C52          C53   1.366       .  D
C53          C54   1.537   1_655  S
C53         C230   1.477       .  S
C54          C58   1.536       .  S
C54          C56   1.537       .  S
C54          H60   1.107       .  S
C55          H61   1.086       .  S
C55          C56   1.365       .  D
C56         C281   1.475       .  S
C57          H62   1.080       .  S
C57          C58   1.365       .  D
C58         C153   1.481       .  S
N63          C67   1.343       .  A
N63          N64   1.323       .  A
N63         Cu71   2.070       .  S
N64          C65   1.349       .  A
N64         Cu70   2.095   1_556  S
C65          C66   1.389       .  A
C65          H68   1.080       .  S
C66         C166   1.479       .  S
C66          C67   1.382       .  A
C67          H69   1.082       .  S
Cu70         N73   2.095       .  S
Cu71         N81   2.069   1_556  S
Cu72         N74   2.067       .  S
Cu72         N80   2.066       .  S
N73          C77   1.350       .  A
N73          N74   1.323       .  A
N74          C75   1.343       .  A
C75          C76   1.382       .  A
C75          H78   1.082       .  S
C76         C185   1.479       .  S
C76          C77   1.390       .  A
C77          H79   1.081       .  S
N80          C84   1.343   1_455  A
N80          N81   1.320       .  A
N81          C82   1.345   1_454  A
C82          C83   1.385   1_556  A
C82          H85   1.082       .  S
C83         C118   1.473       .  S
C83          C84   1.383       .  A
C84          H86   1.082       .  S
N87          C91   1.342       .  A
N87          N88   1.321       .  A
N87         Cu95   2.069       .  S
N88          C89   1.342       .  A
N88         Cu94   2.053   1_556  S
C89          C90   1.379       .  A
C89          H92   1.082       .  S
C90         C137   1.467       .  S
C90          C91   1.384       .  A
C91          H93   1.082       .  S
Cu94         N97   2.053       .  S
Cu95        N105   2.069       .  S
Cu96         N98   2.065       .  S
Cu96        N104   2.066       .  S
N97         C101   1.342       .  A
N97          N98   1.320       .  A
N98          C99   1.342       .  A
C99         C100   1.383       .  A
C99         H102   1.082       .  S
C100        C150   1.467   1_655  S
C100        C101   1.381       .  A
C101        H103   1.081       .  S
N104        C108   1.342       .  A
N104        N105   1.321   1_554  A
N105        C106   1.345       .  A
C106        C107   1.384   1_556  A
C106        H109   1.082       .  S
C107        C121   1.472       .  S
C107        C108   1.383       .  A
C108        H110   1.081       .  S
C111        C116   1.387       .  A
C111        C112   1.398       .  A
C111        S117   1.703   1_565  A
C112        C113   1.400       .  A
C112        H123   1.083       .  S
C113        C122   1.366       .  A
C113        C114   1.386   1_554  A
C114        C115   1.402       .  A
C114        S120   1.708       .  A
C115        C116   1.403   1_556  A
C115        H124   1.083       .  S
C116        C119   1.370   1_564  A
S117        C118   1.722       .  A
C118        C119   1.387   1_554  A
C119        H125   1.083       .  S
S120        C121   1.724   1_556  A
C121        C122   1.385       .  A
C122        H126   1.082       .  S
C127        C132   1.386       .  A
C127        C128   1.395       .  A
C127        S133   1.695       .  A
C128        C129   1.396       .  A
C128        H139   1.083       .  S
C129        C138   1.363   1_455  A
C129        C130   1.387       .  A
C130        C131   1.402       .  A
C130        S136   1.705   1_455  A
C131        C132   1.402       .  A
C131        H140   1.083       .  S
C132        C135   1.369       .  A
S133        C134   1.725       .  A
C134        C135   1.388       .  A
C135        H141   1.083       .  S
S136        C137   1.724       .  A
C137        C138   1.382       .  A
C138        H142   1.083       .  S
C143        C148   1.387       .  A
C143        C144   1.395       .  A
C143        S149   1.701       .  A
C144        C145   1.397       .  A
C144        H155   1.083       .  S
C145        C154   1.361       .  A
C145        C146   1.385       .  A
C146        C147   1.401       .  A
C146        S152   1.706   1_455  A
C147        C148   1.403       .  A
C147        H156   1.083   1_455  S
C148        C151   1.367       .  A
S149        C150   1.720       .  A
C150        C151   1.387       .  A
C151        H157   1.082   1_455  S
S152        C153   1.725   1_655  A
C153        C154   1.387       .  A
C154        H158   1.081       .  S
C159        C164   1.386       .  A
C159        C160   1.402       .  A
C159        S165   1.706       .  A
C160        C161   1.403       .  A
C160        H171   1.084       .  S
C161        C170   1.373       .  A
C161        C162   1.385   1_455  A
C162        C163   1.404   1_655  A
C162        S168   1.707       .  A
C163        C164   1.404       .  A
C163        H172   1.084   1_455  S
C164        C167   1.374       .  A
S165        C166   1.725       .  A
C166        C167   1.388       .  A
C167        H173   1.083       .  S
S168        C169   1.729       .  A
C169        C170   1.393   1_655  A
C170        H174   1.080       .  S
C175        C180   1.385   1_455  A
C175        C176   1.405       .  A
C175        S181   1.709       .  A
C176        C177   1.405       .  A
C176        H187   1.083       .  S
C177        C186   1.375       .  A
C177        C178   1.386   1_455  A
C178        C179   1.402       .  A
C178        S184   1.705       .  A
C179        C180   1.403       .  A
C179        H188   1.083       .  S
C180        C183   1.372       .  A
S181        C182   1.727   1_455  A
C182        C183   1.392       .  A
C183        H189   1.081       .  S
S184        C185   1.725   1_655  A
C185        C186   1.389       .  A
C186        H190   1.083       .  S
C191        C196   1.386       .  A
C191        C192   1.408       .  A
C191        S197   1.717       .  A
C192        C193   1.409       .  A
C192        H203   1.083       .  S
C193        C202   1.378       .  A
C193        C194   1.386       .  A
C194        C195   1.398       .  A
C194        S200   1.701       .  A
C195        C196   1.399       .  A
C195        H204   1.083       .  S
C196        C199   1.367       .  A
S197        C198   1.726       .  A
C198        C199   1.385       .  A
C199        H205   1.083       .  S
S200        C201   1.721       .  A
C201        C202   1.393       .  A
C202        H206   1.083       .  S
C207        C212   1.387       .  A
C207        C208   1.400       .  A
C207        S213   1.705       .  A
C208        C209   1.401       .  A
C208        H219   1.082       .  S
C209        C218   1.368       .  A
C209        C210   1.387       .  A
C210        C211   1.403       .  A
C210        S216   1.709       .  A
C211        C212   1.403       .  A
C211        H220   1.082       .  S
C212        C215   1.371       .  A
S213        C214   1.720       .  A
C214        C215   1.386       .  A
C215        H221   1.082       .  S
S216        C217   1.722       .  A
C217        C218   1.384       .  A
C218        H222   1.082       .  S
C223        C228   1.387       .  A
C223        C224   1.396       .  A
C223        S229   1.700       .  A
C224        C225   1.398       .  A
C224        H235   1.084       .  S
C225        C234   1.363       .  A
C225        C226   1.387       .  A
C226        C227   1.403       .  A
C226        S232   1.711       .  A
C227        C228   1.404       .  A
C227        H236   1.083       .  S
C228        C231   1.370       .  A
S229        C230   1.720       .  A
C230        C231   1.389       .  A
C231        H237   1.083       .  S
S232        C233   1.722       .  A
C233        C234   1.383       .  A
C234        H238   1.084       .  S
C239        C244   1.388       .  A
C239        C240   1.400       .  A
C239        S245   1.705       .  A
C240        C241   1.401       .  A
C240        H251   1.083       .  S
C241        C250   1.369       .  A
C241        C242   1.388       .  A
C242        C243   1.400       .  A
C242        S248   1.706       .  A
C243        C244   1.401       .  A
C243        H252   1.083       .  S
C244        C247   1.369       .  A
S245        C246   1.721       .  A
C246        C247   1.383       .  A
C247        H253   1.083       .  S
S248        C249   1.721       .  A
C249        C250   1.384       .  A
C250        H254   1.083       .  S
C255        C260   1.387       .  A
C255        C256   1.403       .  A
C255        S261   1.708       .  A
C256        C257   1.403       .  A
C256        H267   1.082       .  S
C257        C266   1.371       .  A
C257        C258   1.387       .  A
C258        C259   1.397       .  A
C258        S264   1.700       .  A
C259        C260   1.398       .  A
C259        H268   1.082       .  S
C260        C263   1.365       .  A
S261        C262   1.724       .  A
C262        C263   1.384       .  A
C263        H269   1.083       .  S
S264        C265   1.721       .  A
C265        C266   1.387       .  A
C266        H270   1.083       .  S
C271        C276   1.387       .  A
C271        C272   1.396       .  A
C271        S277   1.701       .  A
C272        C273   1.398       .  A
C272        H283   1.083       .  S
C273        C282   1.363       .  A
C273        C274   1.386       .  A
C274        C275   1.402       .  A
C274        S280   1.708       .  A
C275        C276   1.403       .  A
C275        H284   1.083       .  S
C276        C279   1.369       .  A
S277        C278   1.721       .  A
C278        C279   1.386       .  A
C279        H285   1.083       .  S
S280        C281   1.724       .  A
C281        C282   1.383       .  A
C282        H286   1.081       .  S
C287        C292   1.388       .  A
C287        C288   1.400       .  A
C287        S293   1.707       .  A
C288        C289   1.401       .  A
C288        H299   1.083       .  S
C289        C298   1.367       .  A
C289        C290   1.387       .  A
C290        C291   1.399       .  A
C290        S296   1.707       .  A
C291        C292   1.401       .  A
C291        H300   1.083       .  S
C292        C295   1.367       .  A
S293        C294   1.719       .  A
C294        C295   1.383       .  A
C295        H301   1.083       .  S
S296        C297   1.721       .  A
C297        C298   1.386       .  A
C298        H302   1.083       .  S
C303        C308   1.387       .  A
C303        C304   1.400       .  A
C303        S309   1.703       .  A
C304        C305   1.401       .  A
C304        H315   1.083       .  S
C305        C314   1.369       .  A
C305        C306   1.386       .  A
C306        C307   1.405       .  A
C306        S312   1.712       .  A
C307        C308   1.406       .  A
C307        H316   1.083       .  S
C308        C311   1.376       .  A
S309        C310   1.724       .  A
C310        C311   1.389       .  A
C311        H317   1.083       .  S
S312        C313   1.726       .  A
C313        C314   1.388       .  A
C314        H318   1.083       .  S
C319        C324   1.387       .  A
C319        C320   1.402       .  A
C319        S325   1.706       .  A
C320        C321   1.403       .  A
C320        H331   1.083       .  S
C321        C330   1.371       .  A
C321        C322   1.385       .  A
C322        C323   1.403       .  A
C322        S328   1.707       .  A
C323        C324   1.403       .  A
C323        H332   1.083       .  S
C324        C327   1.373       .  A
S325        C326   1.724       .  A
C326        C327   1.386       .  A
C327        H333   1.083       .  S
S328        C329   1.726       .  A
C329        C330   1.389       .  A
C330        H334   1.081       .  S
C335        C340   1.387       .  A
C335        C336   1.400       .  A
C335        S341   1.707       .  A
C336        C337   1.401       .  A
C336        H347   1.083       .  S
C337        C346   1.368       .  A
C337        C338   1.387       .  A
C338        C339   1.402       .  A
C338        S344   1.709       .  A
C339        C340   1.403       .  A
C339        H348   1.083       .  S
C340        C343   1.369       .  A
S341        C342   1.721       .  A
C342        C343   1.386       .  A
C343        H349   1.083       .  S
S344        C345   1.721       .  A
C345        C346   1.384       .  A
C346        H350   1.083       .  S
