geometry optimzed in LAMMPS
_audit_creation_date              2020-12-01 
_audit_creation_method            'lammps2cif' 
_symmetry_space_group_name_H-M    'P1' 
_symmetry_Int_Tables_number       1 
_symmetry_cell_setting            triclinic 
loop_ 
_symmetry_equiv_pos_as_xyz 
  x,y,z 
_cell_length_a                    24.84573538 
_cell_length_b                    24.634654936257455 
_cell_length_c                    50.89686130640771 
_cell_angle_alpha                 89.67520518837308 
_cell_angle_beta                  109.52338061935681 
_cell_angle_gamma                 89.97178838057893 
loop_ 
_atom_site_label 
_atom_site_type_symbol 
_atom_site_fract_x 
_atom_site_fract_y 
_atom_site_fract_z 
_atom_site_charge 
N1          N  0.30643510  0.94463421  0.63713434    -0.27600
N2          N  0.32916450  0.96904418  0.62018568    -0.35400
C3          C  0.33919996  0.93191738  0.60308302     0.00800
C4          C  0.32260508  0.88182205  0.61002542     0.06800
C5          C  0.30232090  0.89123070  0.63173446    -0.06300
H6          H  0.35899863  0.94043575  0.58753395     0.07500
H7          H  0.28483239  0.86167533  0.64244847     0.08700
Cu8        Cu  0.35014451  0.05055730  0.62383807     0.44200
Cu9        Cu  0.27551077  0.98632651  0.66410158     0.42000
Cu10       Cu  0.28431813  0.13357535  0.66315857     0.43900
N11         N  0.37897236  0.12705810  0.63861804    -0.35000
N12         N  0.35564474  0.15814518  0.65302435    -0.29200
C13         C  0.38724859  0.20367462  0.66052223    -0.05300
C14         C  0.43271117  0.20048390  0.65050605     0.06900
C15         C  0.42592674  0.15140295  0.63679511     0.00700
H16         H  0.37853795  0.23601305  0.67283549     0.08300
H17         H  0.45353658  0.13422737  0.62644137     0.07400
N18         N  0.22129455  0.09069753  0.67341496    -0.36400
N19         N  0.22198621  0.03720288  0.67601719    -0.28600
C20         C  0.17719051  0.02131783  0.68328499    -0.03800
C21         C  0.14597184  0.06671707  0.68485803     0.04800
C22         C  0.17487086  0.11012902  0.67840353     0.02900
H23         H  0.16653096  0.97947167  0.68582364     0.08000
H24         H  0.16317682  0.15257582  0.67750974     0.06800
N25         N  0.61764711  0.63870391  0.85150861    -0.27600
N26         N  0.64397975  0.62711172  0.83351224    -0.35400
C27         C  0.69776450  0.64670460  0.84333190     0.00800
C28         C  0.70587858  0.67080419  0.86895395     0.06800
C29         C  0.65423961  0.66471388  0.87343778    -0.06300
H30         H  0.72922020  0.64211651  0.83306442     0.07500
H31         H  0.64388879  0.67844977  0.89133443     0.08700
Cu32       Cu  0.60637512  0.57996975  0.79795568     0.44200
Cu33       Cu  0.53277763  0.61894568  0.84579047     0.42000
Cu34       Cu  0.47172715  0.51575674  0.79567755     0.43900
N35         N  0.56163527  0.52371060  0.76785237    -0.35000
N36         N  0.51493717  0.49826092  0.76819600    -0.29200
C37         C  0.49608430  0.46596760  0.74573623    -0.05300
C38         C  0.53236783  0.47131218  0.73043539     0.06900
C39         C  0.57295996  0.50874949  0.74481617     0.00700
H40         H  0.45625109  0.44380216  0.73977426     0.08300
H41         H  0.60673221  0.52569547  0.73833746     0.07400
N42         N  0.42829454  0.55090705  0.81972386    -0.36400
N43         N  0.44927457  0.59130540  0.83711172    -0.28600
C44         C  0.40949911  0.60752556  0.84810009    -0.03800
C45         C  0.36165530  0.57513256  0.83736566     0.04800
C46         C  0.37525151  0.53958230  0.81957583     0.02900
H47         H  0.41568408  0.63920476  0.86346792     0.08000
H48         H  0.34835207  0.50801700  0.80724490     0.06800
C49         C  0.52057771  0.45379004  0.70155379     0.79900
N50         N  0.52172153  0.40040094  0.69513999    -0.78400
C51         C  0.51086729  0.38534672  0.66816338     0.82400
N52         N  0.49610321  0.42353266  0.64750774    -0.78300
C53         C  0.49153250  0.47652683  0.65379627     0.82500
N54         N  0.50505951  0.49140267  0.68085896    -0.80000
C55         C  0.75826121  0.69623950  0.88803252     0.79900
N56         N  0.76743915  0.69714514  0.91593633    -0.78400
C57         C  0.81447490  0.72186113  0.93365528     0.82400
N58         N  0.85191053  0.74659423  0.92327783    -0.78300
C59         C  0.84386876  0.74498005  0.89556571     0.82500
N60         N  0.79761056  0.71879295  0.87801864    -0.80000
C61         C  0.47933779  0.23955120  0.65344143     0.79900
N62         N  0.52434046  0.22444477  0.64562134    -0.78400
C63         C  0.56564770  0.26056832  0.64588454     0.82400
N64         N  0.56087285  0.31294062  0.65299312    -0.78300
C65         C  0.51660115  0.32831511  0.66137629     0.82500
N66         N  0.47606688  0.29144667  0.66183510    -0.80000
N67         N  0.33966968  0.66604371  0.50502847    -0.27600
N68         N  0.36660091  0.61872264  0.50969569    -0.35400
C69         C  0.36171669  0.59609289  0.48493811     0.00800
C70         C  0.32900819  0.63022962  0.46389426     0.06800
C71         C  0.31580589  0.67403260  0.47740338    -0.06300
H72         H  0.37984013  0.55732004  0.48243576     0.07500
H73         H  0.29192800  0.70990543  0.46786025     0.08700
Cu74       Cu  0.40474836  0.58530143  0.54957434     0.44200
Cu75       Cu  0.33726242  0.71974584  0.53573277     0.42000
Cu76       Cu  0.37940149  0.66492377  0.60420721     0.43900
N77         N  0.43040920  0.56102688  0.59147141    -0.35000
N78         N  0.42115452  0.59116683  0.61096985    -0.29200
C79         C  0.44256482  0.56601190  0.63572034    -0.05300
C80         C  0.46594096  0.51717016  0.63183788     0.06900
C81         C  0.45735729  0.51499726  0.60348100     0.00700
H82         H  0.44019211  0.58177986  0.65510765     0.08300
H83         H  0.46970711  0.48251796  0.59244028     0.07400
N84         N  0.34809975  0.74266558  0.59485226    -0.36400
N85         N  0.33625484  0.76452694  0.56980098    -0.28600
C86         C  0.32469744  0.81760323  0.57110658    -0.03800
C87         C  0.32850967  0.82902733  0.59822715     0.04800
C88         C  0.34302706  0.78066206  0.61268387     0.02900
H89         H  0.31457820  0.84568599  0.55369970     0.08000
H90         H  0.35226471  0.77421307  0.63480915     0.06800
N91         N  0.14931854  0.44823113  0.89249500    -0.27600
N92         N  0.12651349  0.47185379  0.90951875    -0.35400
C93         C  0.11637129  0.43424121  0.92648013     0.00800
C94         C  0.13288616  0.38446160  0.91944901     0.06800
C95         C  0.15325139  0.39454145  0.89772812    -0.06300
H96         H  0.09666164  0.44230859  0.94207407     0.07500
H97         H  0.17081396  0.36531217  0.88699979     0.08700
Cu98       Cu  0.10610245  0.55315966  0.90679206     0.44200
Cu99       Cu  0.18076026  0.49233692  0.86608862     0.42000
Cu100      Cu  0.17624374  0.64051696  0.87137211     0.43900
N101        N  0.07928842  0.63118527  0.89429018    -0.35000
N102        N  0.10444474  0.66431168  0.88147917    -0.29200
C103        C  0.07336849  0.71050155  0.87477460    -0.05300
C104        C  0.02635278  0.70545101  0.88357705     0.06900
C105        C  0.03173627  0.65471463  0.89583452     0.00700
H106        H  0.08315941  0.74436885  0.86353583     0.08300
H107        H  0.00252691  0.63566820  0.90475724     0.07400
N108        N  0.23657624  0.59800451  0.85870810    -0.36400
N109        N  0.23397507  0.54492441  0.85450800    -0.28600
C110        C  0.27689128  0.52964310  0.84565989    -0.03800
C111        C  0.30900085  0.57479090  0.84468042     0.04800
C112        C  0.28246952  0.61755892  0.85317515     0.02900
H113        H  0.28585077  0.48809007  0.84167037     0.08000
H114        H  0.29547822  0.65966645  0.85513290     0.06800
N115        N  0.94188208  0.99788127  0.76305410    -0.27600
N116        N  0.89575557  0.02465047  0.76315668    -0.35400
C117        C  0.88467522  0.01151654  0.78655598     0.00800
C118        C  0.92493010  0.97395815  0.80149938     0.06800
C119        C  0.96067862  0.96647193  0.78607360    -0.06300
H120        H  0.85120833  0.02964535  0.79281608     0.07500
H121        H  0.00002637  0.94333692  0.79220955     0.08700
Cu122      Cu  0.85189106  0.08031147  0.73217857     0.44200
Cu123      Cu  0.98364877  0.01281100  0.73466404     0.42000
Cu124      Cu  0.92310327  0.11636199  0.68282199     0.43900
N125        N  0.81409054  0.12797483  0.69658963    -0.35000
N126        N  0.83947146  0.13898580  0.67809387    -0.29200
C127        C  0.80252638  0.16575671  0.65635961    -0.05300
C128        C  0.75166884  0.17275596  0.66151003     0.06900
C129        C  0.76061540  0.14852782  0.68728574     0.00700
H130        H  0.81194069  0.17897521  0.63805919     0.08300
H131        H  0.72980296  0.14427883  0.69796525     0.07400
N132        N  0.00536640  0.08549187  0.69141875    -0.36400
N133        N  0.02584812  0.04528714  0.70932114    -0.28600
C134        C  0.07864540  0.03266174  0.70956656    -0.03800
C135        C  0.09259705  0.06720930  0.69136928     0.04800
C136        C  0.04528358  0.10028817  0.68020978     0.02900
H137        H  0.10543739  0.00142882  0.72253756     0.08000
H138        H  0.03979834  0.13191927  0.66468136     0.06800
C139        C  0.93606064  0.95700483  0.83053734     0.79900
N140        N  0.93559431  0.90372250  0.83750958    -0.78400
C141        C  0.94471663  0.88916286  0.86449585     0.82400
N142        N  0.95728239  0.92774060  0.88470020    -0.78300
C143        C  0.96103617  0.98073569  0.87793131     0.82500
N144        N  0.94906013  0.99510656  0.85077640    -0.80000
C145        C  0.69868877  0.19798804  0.64269654     0.79900
N146        N  0.68832012  0.19870274  0.61470997    -0.78400
C147        C  0.63987327  0.22187679  0.59711629     0.82400
N148        N  0.60208366  0.24524020  0.60767987    -0.78300
C149        C  0.61153380  0.24398768  0.63554490     0.82500
N150        N  0.65930636  0.21934540  0.65298156    -0.80000
C151        C  0.97893455  0.74384890  0.88024566     0.79900
N152        N  0.93286894  0.72742346  0.88690100    -0.78400
C153        C  0.89024140  0.76269140  0.88578422     0.82400
N154        N  0.89470822  0.81549941  0.87900180    -0.78300
C155        C  0.94006102  0.83210832  0.87173676     0.82500
N156        N  0.98194572  0.79613583  0.87214197    -0.80000
N157        N  0.11178425  0.17055583  0.02562267    -0.27600
N158        N  0.08453795  0.12350461  0.02141363    -0.35400
C159        C  0.08988071  0.10115930  0.04643097     0.00800
C160        C  0.12313979  0.13517861  0.06714952     0.06800
C161        C  0.13617504  0.17863895  0.05317154    -0.06300
H162        H  0.07168060  0.06263618  0.04934037     0.07500
H163        H  0.16045102  0.21430799  0.06234467     0.08700
Cu164      Cu  0.04517329  0.08995737  0.98173042     0.44200
Cu165      Cu  0.11463893  0.22374450  0.99446321     0.42000
Cu166      Cu  0.06673164  0.17086965  0.92608912     0.43900
N167        N  0.01821865  0.06613813  0.93975198    -0.35000
N168        N  0.02582081  0.09707222  0.91995892    -0.29200
C169        C  0.00514582  0.07185893  0.89536896    -0.05300
C170        C  0.98396186  0.02208265  0.89959410     0.06900
C171        C  0.99300190  0.01948043  0.92803216     0.00700
H172        H  0.00716564  0.08801409  0.87590327     0.08300
H173        H  0.98269984  0.98603290  0.93935823     0.07400
N174        N  0.10222592  0.24678470  0.93499779    -0.36400
N175        N  0.11661304  0.26809474  0.96013819    -0.28600
C176        C  0.13108013  0.32034754  0.95870625    -0.03800
C177        C  0.12657390  0.33170029  0.93140944     0.04800
C178        C  0.10849081  0.28420404  0.91695874     0.02900
H179        H  0.14324567  0.34807472  0.97611018     0.08000
H180        H  0.09737009  0.27820840  0.89473155     0.06800
N181        N  0.65256781  0.89979517  0.39508982    -0.27600
N182        N  0.63035197  0.87513466  0.41218090    -0.35400
C183        C  0.61890413  0.91221560  0.42889543     0.00800
C184        C  0.63378097  0.96265403  0.42154059     0.06800
C185        C  0.65468775  0.95344870  0.39998171    -0.06300
H186        H  0.59870866  0.90343501  0.44426218     0.07500
H187        H  0.67082298  0.98340154  0.38889368     0.08700
Cu188      Cu  0.60961542  0.79364228  0.40867897     0.44200
Cu189      Cu  0.68386235  0.85794459  0.36807278     0.42000
Cu190      Cu  0.67347727  0.71021113  0.36905241     0.43900
N191        N  0.57908143  0.71782200  0.39362993    -0.35000
N192        N  0.60211445  0.68635987  0.37926098    -0.29200
C193        C  0.56970378  0.64141952  0.37148983    -0.05300
C194        C  0.52394268  0.64542877  0.38123718     0.06900
C195        C  0.53139294  0.69437214  0.39510461     0.00700
H196        H  0.57801991  0.60897998  0.35911668     0.08300
H197        H  0.50379473  0.71203893  0.40532834     0.07400
N198        N  0.73483385  0.75246075  0.35725038    -0.36400
N199        N  0.73470757  0.80595581  0.35461423    -0.28600
C200        C  0.77811396  0.82090831  0.34599115    -0.03800
C201        C  0.80783717  0.77489722  0.34360106     0.04800
C202        C  0.77946025  0.73215535  0.35097425     0.02900
H203        H  0.78911396  0.86252482  0.34317636     0.08000
H204        H  0.79041752  0.68953493  0.35172255     0.06800
C205        C  0.47675742  0.60690705  0.37797662     0.79900
N206        N  0.47966860  0.55515924  0.36933734    -0.78400
C207        C  0.43889874  0.51844379  0.36957812     0.82400
N208        N  0.39462091  0.53385091  0.37793915    -0.78300
C209        C  0.39018236  0.58612106  0.38529540     0.82500
N210        N  0.43178794  0.62211132  0.38580566    -0.80000
N211        N  0.33704067  0.21047304  0.17903365    -0.27600
N212        N  0.31183364  0.22027516  0.19768073    -0.35400
C213        C  0.25815301  0.20047586  0.18812523     0.00800
C214        C  0.24899624  0.17809971  0.16203176     0.06800
C215        C  0.29986806  0.18536854  0.15697497    -0.06300
H216        H  0.22745098  0.20379360  0.19891096     0.07500
H217        H  0.30929396  0.17314170  0.13859414     0.08700
Cu218      Cu  0.35051635  0.26566071  0.23369104     0.44200
Cu219      Cu  0.42096096  0.23162875  0.18394641     0.42000
Cu220      Cu  0.48245503  0.33366272  0.23438158     0.43900
N221        N  0.39512698  0.32221801  0.26355822    -0.35000
N222        N  0.44053124  0.34919266  0.26260223    -0.29200
C223        C  0.45907754  0.38198957  0.28487335    -0.05300
C224        C  0.42393135  0.37533849  0.30067276     0.06900
C225        C  0.38441289  0.33661897  0.28681326     0.00700
H226        H  0.49799725  0.40552868  0.29032720     0.08300
H227        H  0.35168370  0.31864830  0.29372665     0.07400
N228        N  0.52483275  0.30040533  0.20941222    -0.36400
N229        N  0.50363161  0.26029096  0.19188040    -0.28600
C230        C  0.54292511  0.24455941  0.18051233    -0.03800
C231        C  0.59070348  0.27698012  0.19116660     0.04800
C232        C  0.57759700  0.31209252  0.20927737     0.02900
H233        H  0.53661432  0.21288870  0.16513111     0.08000
H234        H  0.60482865  0.34322080  0.22182313     0.06800
C235        C  0.43599670  0.39309607  0.32950678     0.79900
N236        N  0.43458449  0.44646530  0.33588799    -0.78400
C237        C  0.44473365  0.46144180  0.36282692     0.82400
N238        N  0.45916693  0.42323432  0.38348529    -0.78300
C239        C  0.46375411  0.37024687  0.37719072     0.82500
N240        N  0.45081755  0.35547121  0.35016647    -0.80000
C241        C  0.19628001  0.15313989  0.14311677     0.79900
N242        N  0.15738047  0.13066052  0.15341565    -0.78400
C243        C  0.11036845  0.10540320  0.13601349     0.82400
N244        N  0.10117047  0.10447241  0.10819974    -0.78300
C245        C  0.13829635  0.12897052  0.09756901     0.82500
N246        N  0.18607627  0.15291639  0.11511405    -0.80000
N247        N  0.61446096  0.18022415  0.52552889    -0.27600
N248        N  0.58723275  0.22739446  0.52098934    -0.35400
C249        C  0.59208130  0.24980878  0.54579410     0.00800
C250        C  0.62500865  0.21566830  0.56676647     0.06800
C251        C  0.63845030  0.17212016  0.55314677    -0.06300
H252        H  0.57374595  0.28842379  0.54837353     0.07500
H253        H  0.66256291  0.13631722  0.56261825     0.08700
Cu254      Cu  0.54838604  0.26069303  0.48118888     0.44200
Cu255      Cu  0.61655999  0.12661447  0.49460929     0.42000
Cu256      Cu  0.56560933  0.17727500  0.42544717     0.43900
N257        N  0.52177430  0.28444127  0.43924155    -0.35000
N258        N  0.52785937  0.25296435  0.41943985    -0.29200
C259        C  0.50722411  0.27860568  0.39481009    -0.05300
C260        C  0.48756937  0.32904479  0.39905338     0.06900
C261        C  0.49756303  0.33171724  0.42751667     0.00700
H262        H  0.50769358  0.26202567  0.37524158     0.08300
H263        H  0.48820861  0.36542367  0.43883722     0.07400
N264        N  0.59988412  0.10057725  0.43506374    -0.36400
N265        N  0.61570529  0.08030383  0.46059594    -0.28600
C266        C  0.63054291  0.02792737  0.45988062    -0.03800
C267        C  0.62483938  0.01537669  0.43262964     0.04800
C268        C  0.60560256  0.06232853  0.41746911     0.02900
H269        H  0.64462515  0.00115845  0.47782384     0.08000
H270        H  0.59427440  0.06764886  0.39515112     0.06800
N271        N  0.80878557  0.40123884  0.13891594    -0.27600
N272        N  0.83149958  0.37766127  0.12185593    -0.35400
C273        C  0.84304417  0.41552374  0.10541350     0.00800
C274        C  0.82737956  0.46535764  0.11282597     0.06800
C275        C  0.80617118  0.45506820  0.13422409    -0.06300
H276        H  0.86231699  0.40745291  0.08965254     0.07500
H277        H  0.78821738  0.48418994  0.14483460     0.08700
Cu278      Cu  0.84828398  0.29571264  0.12359876     0.44200
Cu279      Cu  0.77456479  0.35702156  0.16411993     0.42000
Cu280      Cu  0.77730901  0.20870766  0.15912205     0.43900
N281        N  0.87421430  0.21762784  0.13623203    -0.35000
N282        N  0.84914410  0.18475589  0.14920390    -0.29200
C283        C  0.88047019  0.13876699  0.15623486    -0.05300
C284        C  0.92751671  0.14376667  0.14746398     0.06900
C285        C  0.92190993  0.19416091  0.13489768     0.00700
H286        H  0.87089988  0.10518363  0.16772036     0.08300
H287        H  0.95119128  0.21314714  0.12599956     0.07400
N288        N  0.71658757  0.25230903  0.17088464    -0.36400
N289        N  0.71955015  0.30544855  0.17487083    -0.28600
C290        C  0.67615692  0.32150457  0.18316680    -0.03800
C291        C  0.64345081  0.27676935  0.18401882     0.04800
C292        C  0.67003206  0.23345977  0.17601842     0.02900
H293        H  0.66751659  0.36323308  0.18700066     0.08000
H294        H  0.65673657  0.19143633  0.17422761     0.06800
N295        N  0.01569598  0.84846050  0.26780889    -0.27600
N296        N  0.06316616  0.82382691  0.26799614    -0.35400
C297        C  0.07487218  0.83898471  0.24502218     0.00800
C298        C  0.03347468  0.87556814  0.23009547     0.06800
C299        C  0.99652985  0.88035541  0.24503564    -0.06300
H300        H  0.10922659  0.82246798  0.23888760     0.07500
H301        H  0.95607085  0.90168884  0.23860509     0.08700
Cu302      Cu  0.10697422  0.76735721  0.29838304     0.44200
Cu303      Cu  0.97203041  0.82982562  0.29489847     0.42000
Cu304      Cu  0.02969354  0.72340333  0.34441900     0.43900
N305        N  0.14248657  0.71813948  0.33349334    -0.35000
N306        N  0.11505692  0.70420574  0.35076970    -0.29200
C307        C  0.15128304  0.67714428  0.37264637    -0.05300
C308        C  0.20371056  0.67299450  0.36878366     0.06900
C309        C  0.19649998  0.69919619  0.34367729     0.00700
H310        H  0.14025063  0.66164532  0.39011370     0.08300
H311        H  0.22874945  0.70578558  0.33404930     0.07400
N312        N  0.94706685  0.75377962  0.33573014    -0.36400
N313        N  0.92754023  0.79531571  0.31862159    -0.28600
C314        C  0.87506830  0.80862736  0.31863940    -0.06200
C315        C  0.86031578  0.77320848  0.33624718     0.04800
C316        C  0.90682144  0.73880371  0.34669729     0.02900
H317        H  0.84937482  0.84144444  0.30655027     0.08000
H318        H  0.91185469  0.70661817  0.36189954     0.06800
C319        C  0.02167439  0.89275188  0.20112090     0.79900
N320        N  0.00484944  0.85532978  0.18059556    -0.78400
C321        C  0.99066750  0.87041312  0.15342264     0.82400
N322        N  0.99507165  0.92336993  0.14684651    -0.78300
C323        C  0.01099875  0.96122098  0.16736290     0.82500
N324        N  0.02308884  0.94603278  0.19444874    -0.80000
C325        C  0.25640993  0.64795804  0.38789995     0.79900
N326        N  0.29641006  0.62719332  0.37786882    -0.78400
C327        C  0.34406043  0.60269790  0.39544363     0.82400
N328        N  0.35284829  0.60106538  0.42323416    -0.78300
C329        C  0.31448567  0.62394014  0.43358328     0.82500
N330        N  0.26604257  0.64690197  0.41582847    -0.80000
C331        C  0.97540014  0.10587823  0.15120001     0.79900
N332        N  0.02145641  0.12264041  0.14464947    -0.78400
C333        C  0.06465821  0.08782498  0.14618022     0.82400
N334        N  0.06087608  0.03516589  0.15329215    -0.78300
C335        C  0.01538714  0.01821815  0.16029914     0.82500
N336        N  0.97279514  0.05365612  0.15943457    -0.80000
N337        N  0.83912609  0.68111907  0.00559233    -0.27600
N338        N  0.86545068  0.72863156  0.00980506    -0.35400
C339        C  0.86056515  0.75081276  0.98480483     0.00800
C340        C  0.82853428  0.71617694  0.96405927     0.06800
C341        C  0.81570511  0.67256050  0.97803118    -0.06300
H342        H  0.87837925  0.78955504  0.98192070     0.07500
H343        H  0.79248263  0.63637459  0.96885403     0.08700
Cu344      Cu  0.90336727  0.76255272  0.04949348     0.44200
Cu345      Cu  0.83747757  0.62768216  0.03689310     0.42000
Cu346      Cu  0.88079028  0.68226190  0.10503471     0.43900
N347        N  0.92962020  0.78659791  0.09140387    -0.35000
N348        N  0.92144382  0.75598636  0.11116348    -0.29200
C349        C  0.94292849  0.78081418  0.13581653    -0.05300
C350        C  0.96523556  0.83001085  0.13163742     0.06900
C351        C  0.95596569  0.83273042  0.10319396     0.00700
H352        H  0.94128338  0.76455761  0.15533151     0.08300
H353        H  0.96745906  0.86564861  0.09195953     0.07400
N354        N  0.85057522  0.60460194  0.09647145    -0.36400
N355        N  0.83831459  0.58275788  0.07153378    -0.28600
C356        C  0.82767288  0.52960668  0.07335519    -0.03800
C357        C  0.83249357  0.51820905  0.10068378     0.04800
C358        C  0.84670095  0.56659780  0.11474762     0.02900
H359        H  0.81739264  0.50146209  0.05614854     0.08000
H360        H  0.85647006  0.57312017  0.13686167     0.06800
loop_ 
_geom_bond_atom_site_label_1 
_geom_bond_atom_site_label_2 
_geom_bond_distance 
_geom_bond_site_symmetry_2 
_ccdc_geom_bond_type 
N1            N2   1.321       .  A
N1            C5   1.342       .  A
N1           Cu9   2.061       .  S
N2            C3   1.345       .  A
N2           Cu8   2.069   1_565  S
C3            C4   1.382       .  A
C3            H6   1.082       .  S
C4            C5   1.380       .  A
C4           C87   1.463       .  S
C5            H7   1.082       .  S
Cu8          N11   2.071       .  S
Cu9          N19   2.062   1_565  S
Cu10         N12   2.093       .  S
Cu10         N18   2.093       .  S
N11          N12   1.323       .  A
N11          C15   1.342       .  A
N12          C13   1.351       .  A
C13          C14   1.388       .  A
C13          H16   1.082       .  S
C14          C15   1.381       .  A
C14          C61   1.476       .  S
C15          H17   1.082       .  S
N18          N19   1.323       .  A
N18          C22   1.349       .  A
N19          C20   1.343       .  A
C20          C21   1.379       .  A
C20          H23   1.082   1_545  S
C21          C22   1.386       .  A
C21         C135   1.471       .  S
C22          H24   1.082       .  S
N25          N26   1.324       .  A
N25          C29   1.347       .  A
N25         Cu33   2.088       .  S
N26          C27   1.351       .  A
N26         Cu32   2.096       .  S
C27          C28   1.388       .  A
C27          H30   1.082       .  S
C28          C29   1.384       .  A
C28          C55   1.481       .  S
C29          H31   1.082       .  S
Cu32         N35   2.096       .  S
Cu33         N43   2.087       .  S
Cu34         N36   2.075       .  S
Cu34         N42   2.075       .  S
N35          N36   1.324       .  A
N35          C39   1.347       .  A
N36          C37   1.346       .  A
C37          C38   1.380       .  A
C37          H40   1.082       .  S
C38          C39   1.385       .  A
C38          C49   1.467       .  S
C39          H41   1.082       .  S
N42          N43   1.322       .  A
N42          C46   1.345       .  A
N43          C44   1.349       .  A
C44          C45   1.386       .  A
C44          H47   1.082       .  S
C45          C46   1.383       .  A
C45         C111   1.475       .  S
C46          H48   1.082       .  S
C49          N50   1.359       .  A
C49          N54   1.354       .  A
N50          C51   1.362       .  A
C51          N52   1.362       .  A
C51          C65   1.467       .  S
N52          C53   1.360       .  A
C53          N54   1.357       .  A
C53          C80   1.472       .  S
C55          N56   1.361       .  A
C55          N60   1.362       .  A
N56          C57   1.361       .  A
C57          N58   1.357       .  A
C57         C340   1.474       .  S
N58          C59   1.358       .  A
C59          N60   1.362       .  A
C59         C153   1.465       .  S
C61          N62   1.359       .  A
C61          N66   1.361       .  A
N62          C63   1.355       .  A
C63          N64   1.358       .  A
C63         C149   1.465       .  S
N64          C65   1.360       .  A
C65          N66   1.362       .  A
N67          N68   1.324       .  A
N67          C71   1.344       .  A
N67         Cu75   2.069       .  S
N68          C69   1.349       .  A
N68         Cu74   2.095       .  S
C69          C70   1.386       .  A
C69          H72   1.082       .  S
C70          C71   1.380       .  A
C70         C329   1.471       .  S
C71          H73   1.082       .  S
Cu74         N77   2.095       .  S
Cu75         N85   2.068       .  S
Cu76         N78   2.061       .  S
Cu76         N84   2.059       .  S
N77          N78   1.323       .  A
N77          C81   1.351       .  A
N78          C79   1.340       .  A
C79          C80   1.379       .  A
C79          H82   1.082       .  S
C80          C81   1.388       .  A
C81          H83   1.082       .  S
N84          N85   1.320       .  A
N84          C88   1.342       .  A
N85          C86   1.345       .  A
C86          C87   1.382       .  A
C86          H89   1.082       .  S
C87          C88   1.380       .  A
C88          H90   1.082       .  S
N91          N92   1.321       .  A
N91          C95   1.345       .  A
N91         Cu99   2.070       .  S
N92          C93   1.343       .  A
N92         Cu98   2.058       .  S
C93          C94   1.379       .  A
C93          H96   1.082       .  S
C94          C95   1.382       .  A
C94         C177   1.463       .  S
C95          H97   1.082       .  S
Cu98        N101   2.060       .  S
Cu99        N109   2.071       .  S
Cu100       N102   2.099       .  S
Cu100       N108   2.100       .  S
N101        N102   1.322       .  A
N101        C105   1.342       .  A
N102        C103   1.351       .  A
C103        C104   1.389       .  A
C103        H106   1.082       .  S
C104        C105   1.380       .  A
C104        C151   1.475   1_455  S
C105        H107   1.082       .  S
N108        N109   1.324       .  A
N108        C112   1.351       .  A
N109        C110   1.343       .  A
C110        C111   1.379       .  A
C110        H113   1.082       .  S
C111        C112   1.388       .  A
C112        H114   1.082       .  S
N115        N116   1.323   1_565  A
N115        C119   1.347       .  A
N115       Cu123   2.073   1_565  S
N116        C117   1.347       .  A
N116       Cu122   2.093       .  S
C117        C118   1.385   1_545  A
C117        H120   1.082       .  S
C118        C119   1.381       .  A
C118        C139   1.468       .  S
C119        H121   1.082   1_655  S
Cu122       N125   2.093       .  S
Cu123       N133   2.073   1_655  S
Cu124       N126   2.085       .  S
Cu124       N132   2.084   1_655  S
N125        N126   1.323       .  A
N125        C129   1.350       .  A
N126        C127   1.347       .  A
C127        C128   1.384       .  A
C127        H130   1.082       .  S
C128        C129   1.387       .  A
C128        C145   1.479       .  S
C129        H131   1.082       .  S
N132        N133   1.323       .  A
N132        C136   1.348       .  A
N133        C134   1.344       .  A
C134        C135   1.381       .  A
C134        H137   1.082       .  S
C135        C136   1.384       .  A
C136        H138   1.082       .  S
C139        N140   1.359       .  A
C139        N144   1.355       .  A
N140        C141   1.361       .  A
C141        N142   1.362       .  A
C141        C155   1.465       .  S
N142        C143   1.360       .  A
C143        N144   1.358       .  A
C143        C170   1.473   1_565  S
C145        N146   1.360       .  A
C145        N150   1.361       .  A
N146        C147   1.360       .  A
C147        N148   1.357       .  A
C147        C250   1.472       .  S
N148        C149   1.358       .  A
C149        N150   1.362       .  A
C151        N152   1.359       .  A
C151        N156   1.360       .  A
N152        C153   1.356       .  A
C153        N154   1.358       .  A
N154        C155   1.361       .  A
C155        N156   1.361       .  A
N157        N158   1.325       .  A
N157        C161   1.345       .  A
N157       Cu165   2.071   1_554  S
N158        C159   1.349       .  A
N158       Cu164   2.102   1_554  S
C159        C160   1.388       .  A
C159        H162   1.082       .  S
C160        C161   1.379       .  A
C160        C245   1.473       .  S
C161        H163   1.082       .  S
Cu164       N167   2.101       .  S
Cu165       N175   2.070       .  S
Cu166       N168   2.057       .  S
Cu166       N174   2.055       .  S
N167        N168   1.323       .  A
N167        C171   1.352   1_455  A
N168        C169   1.340       .  A
C169        C170   1.378   1_455  A
C169        H172   1.082       .  S
C170        C171   1.390       .  A
C171        H173   1.082   1_545  S
N174        N175   1.320       .  A
N174        C178   1.343       .  A
N175        C176   1.345       .  A
C176        C177   1.383       .  A
C176        H179   1.082       .  S
C177        C178   1.379       .  A
C178        H180   1.082       .  S
N181        N182   1.321       .  A
N181        C185   1.344       .  A
N181       Cu189   2.071       .  S
N182        C183   1.345       .  A
N182       Cu188   2.067       .  S
C183        C184   1.381       .  A
C183        H186   1.082       .  S
C184        C185   1.382       .  A
C184        C267   1.465   1_565  S
C185        H187   1.082       .  S
Cu188       N191   2.069       .  S
Cu189       N199   2.072       .  S
Cu190       N192   2.091       .  S
Cu190       N198   2.092       .  S
N191        N192   1.322       .  A
N191        C195   1.343       .  A
N192        C193   1.350       .  A
C193        C194   1.388       .  A
C193        H196   1.082       .  S
C194        C195   1.382       .  A
C194        C205   1.475       .  S
C195        H197   1.082       .  S
N198        N199   1.324       .  A
N198        C202   1.349       .  A
N199        C200   1.344       .  A
C200        C201   1.380       .  A
C200        H203   1.082       .  S
C201        C202   1.386       .  A
C201        C315   1.472       .  S
C202        H204   1.082       .  S
C205        N206   1.361       .  A
C205        N210   1.359       .  A
N206        C207   1.361       .  A
C207        N208   1.360       .  A
C207        C237   1.466       .  S
N208        C209   1.358       .  A
C209        N210   1.356       .  A
C209        C327   1.464       .  S
N211        N212   1.323       .  A
N211        C215   1.346       .  A
N211       Cu219   2.082       .  S
N212        C213   1.350       .  A
N212       Cu218   2.093       .  S
C213        C214   1.388       .  A
C213        H216   1.082       .  S
C214        C215   1.383       .  A
C214        C241   1.478       .  S
C215        H217   1.082       .  S
Cu218       N221   2.093       .  S
Cu219       N229   2.081       .  S
Cu220       N222   2.074       .  S
Cu220       N228   2.074       .  S
N221        N222   1.324       .  A
N221        C225   1.346       .  A
N222        C223   1.346       .  A
C223        C224   1.380       .  A
C223        H226   1.082       .  S
C224        C225   1.385       .  A
C224        C235   1.466       .  S
C225        H227   1.082       .  S
N228        N229   1.322       .  A
N228        C232   1.345       .  A
N229        C230   1.348       .  A
C230        C231   1.384       .  A
C230        H233   1.082       .  S
C231        C232   1.383       .  A
C231        C291   1.473       .  S
C232        H234   1.082       .  S
C235        N236   1.359       .  A
C235        N240   1.353       .  A
N236        C237   1.362       .  A
C237        N238   1.363       .  A
N238        C239   1.360       .  A
C239        N240   1.356       .  A
C239        C260   1.471       .  S
C241        N242   1.361       .  A
C241        N246   1.362       .  A
N242        C243   1.361       .  A
C243        N244   1.357       .  A
C243        C333   1.461       .  S
N244        C245   1.356       .  A
C245        N246   1.361       .  A
N247        N248   1.324       .  A
N247        C251   1.345       .  A
N247       Cu255   2.074       .  S
N248        C249   1.349       .  A
N248       Cu254   2.093       .  S
C249        C250   1.386       .  A
C249        H252   1.082       .  S
C250        C251   1.380       .  A
C251        H253   1.082       .  S
Cu254       N257   2.093       .  S
Cu255       N265   2.073       .  S
Cu256       N258   2.062       .  S
Cu256       N264   2.060       .  S
N257        N258   1.323       .  A
N257        C261   1.351       .  A
N258        C259   1.340       .  A
C259        C260   1.379       .  A
C259        H262   1.082       .  S
C260        C261   1.388       .  A
C261        H263   1.082       .  S
N264        N265   1.320       .  A
N264        C268   1.343       .  A
N265        C266   1.346       .  A
C266        C267   1.383       .  A
C266        H269   1.082       .  S
C267        C268   1.380       .  A
C268        H270   1.082       .  S
N271        N272   1.320       .  A
N271        C275   1.344       .  A
N271       Cu279   2.066       .  S
N272        C273   1.343       .  A
N272       Cu278   2.057       .  S
C273        C274   1.380       .  A
C273        H276   1.082       .  S
C274        C275   1.382       .  A
C274        C357   1.462       .  S
C275        H277   1.082       .  S
Cu278       N281   2.058       .  S
Cu279       N289   2.068       .  S
Cu280       N282   2.096       .  S
Cu280       N288   2.097       .  S
N281        N282   1.322       .  A
N281        C285   1.340       .  A
N282        C283   1.351       .  A
C283        C284   1.389       .  A
C283        H286   1.082       .  S
C284        C285   1.379       .  A
C284        C331   1.473       .  S
C285        H287   1.082       .  S
N288        N289   1.324       .  A
N288        C292   1.350       .  A
N289        C290   1.343       .  A
C290        C291   1.379       .  A
C290        H293   1.082       .  S
C291        C292   1.387       .  A
C292        H294   1.082       .  S
N295        N296   1.323       .  A
N295        C299   1.345   1_455  A
N295       Cu303   2.069   1_455  S
N296        C297   1.347       .  A
N296       Cu302   2.088       .  S
C297        C298   1.384       .  A
C297        H300   1.082       .  S
C298        C299   1.379   1_455  A
C298        C319   1.464       .  S
C299        H301   1.082       .  S
Cu302       N305   2.089       .  S
Cu303       N313   2.070       .  S
Cu304       N306   2.089       .  S
Cu304       N312   2.088   1_455  S
N305        N306   1.324       .  A
N305        C309   1.349       .  A
N306        C307   1.347       .  A
C307        C308   1.385       .  A
C307        H310   1.082       .  S
C308        C309   1.385       .  A
C308        C325   1.477       .  S
C309        H311   1.082       .  S
N312        N313   1.322       .  A
N312        C316   1.349       .  A
N313        C314   1.344       .  A
C314        C315   1.382       .  A
C314        H317   1.082       .  S
C315        C316   1.385       .  A
C316        H318   1.082       .  S
C319        N320   1.355       .  A
C319        N324   1.357       .  A
N320        C321   1.358   1_455  A
C321        N322   1.359       .  A
C321        C350   1.471       .  S
N322        C323   1.361   1_655  A
C323        N324   1.359       .  A
C323        C335   1.461   1_565  S
C325        N326   1.361       .  A
C325        N330   1.360       .  A
N326        C327   1.361       .  A
C327        N328   1.358       .  A
N328        C329   1.357       .  A
C329        N330   1.361       .  A
C331        N332   1.358   1_655  A
C331        N336   1.359       .  A
N332        C333   1.355       .  A
C333        N334   1.357       .  A
N334        C335   1.359       .  A
C335        N336   1.361   1_455  A
N337        N338   1.324       .  A
N337        C341   1.345   1_554  A
N337       Cu345   2.072       .  S
N338        C339   1.350   1_554  A
N338       Cu344   2.101       .  S
C339        C340   1.388       .  A
C339        H342   1.082       .  S
C340        C341   1.380       .  A
C341        H343   1.082       .  S
Cu344       N347   2.100       .  S
Cu345       N355   2.071       .  S
Cu346       N348   2.053       .  S
Cu346       N354   2.051       .  S
N347        N348   1.323       .  A
N347        C351   1.351       .  A
N348        C349   1.340       .  A
C349        C350   1.378       .  A
C349        H352   1.082       .  S
C350        C351   1.389       .  A
C351        H353   1.082       .  S
N354        N355   1.320       .  A
N354        C358   1.342       .  A
N355        C356   1.345       .  A
C356        C357   1.383       .  A
C356        H359   1.082       .  S
C357        C358   1.378       .  A
C358        H360   1.082       .  S
