geometry optimzed in LAMMPS
_audit_creation_date              2020-11-30 
_audit_creation_method            'lammps2cif' 
_symmetry_space_group_name_H-M    'P1' 
_symmetry_Int_Tables_number       1 
_symmetry_cell_setting            triclinic 
loop_ 
_symmetry_equiv_pos_as_xyz 
  x,y,z 
_cell_length_a                    25.31392294636747 
_cell_length_b                    25.342233525172404 
_cell_length_c                    25.38409757301076 
_cell_angle_alpha                 89.98746333881344 
_cell_angle_beta                  90.02685768795465 
_cell_angle_gamma                 91.61653113144048 
loop_ 
_atom_site_label 
_atom_site_type_symbol 
_atom_site_fract_x 
_atom_site_fract_y 
_atom_site_fract_z 
_atom_site_charge 
C1          C  0.49050029  0.73528277  0.96789665     0.02980
C2          C  0.44257462  0.70616646  0.97739519    -0.13170
C3          C  0.44504006  0.65671514  0.00179153     0.00480
C4          C  0.49452242  0.64230156  0.02054891    -0.11690
C5          C  0.54067977  0.65992443  0.99530995     0.02980
C6          C  0.53939003  0.70925416  0.97052676    -0.11110
H7          H  0.40468760  0.72278693  0.96835521     0.08570
H8          H  0.49659114  0.61073484  0.04789407     0.06100
H9          H  0.57564175  0.72825508  0.95669225     0.05950
C10         C  0.66157616  0.57637180  0.01775010     0.02980
C11         C  0.63268930  0.62317497  0.01114089    -0.13170
C12         C  0.58246688  0.61987638  0.98818292     0.00480
C13         C  0.56551988  0.57051997  0.96886259    -0.11690
C14         C  0.58369005  0.52410145  0.99157914     0.02980
C15         C  0.63453970  0.52651364  0.01356003    -0.11110
H16         H  0.64979085  0.66127360  0.02208845     0.08570
H17         H  0.53249629  0.56828863  0.94284738     0.06100
H18         H  0.65310007  0.49040155  0.02524612     0.05950
C19         C  0.49404647  0.39896637  0.98725991     0.02980
C20         C  0.54153212  0.43029992  0.98317573    -0.13170
C21         C  0.54252199  0.48183084  0.00324754     0.00480
C22         C  0.49673452  0.49809974  0.02845546    -0.11690
C23         C  0.44705267  0.47755086  0.01342347     0.02980
C24         C  0.44544946  0.42514378  0.99548554    -0.11110
H25         H  0.57720271  0.41404172  0.96712598     0.08570
H26         H  0.49877600  0.53263698  0.05208770     0.06100
H27         H  0.40760529  0.40509240  0.98967609     0.05950
C28         C  0.32487591  0.56440966  0.02793115     0.02980
C29         C  0.35269575  0.61344664  0.02007046    -0.13170
C30         C  0.40373022  0.61307750  0.99874968     0.00480
C31         C  0.42147903  0.56453948  0.98126189    -0.11690
C32         C  0.40468019  0.51753524  0.00526354     0.02980
C33         C  0.35325752  0.51648268  0.02621747    -0.11110
H34         H  0.33425202  0.65064430  0.02797408     0.08570
H35         H  0.45516898  0.56408675  0.95659070     0.06100
H36         H  0.33508918  0.47959833  0.03934096     0.05950
C37         C  0.99006168  0.57781973  0.67492006     0.02980
C38         C  0.99456817  0.52928215  0.64724380    -0.13170
C39         C  0.01418491  0.53026128  0.59560117     0.00480
C40         C  0.03348472  0.57914053  0.57692668    -0.11690
C41         C  0.01177089  0.62621555  0.59449306     0.02980
C42         C  0.99100605  0.62585049  0.64570362    -0.11110
H43         H  0.98488374  0.49182780  0.66588523     0.08570
H44         H  0.05894833  0.58003602  0.54360747     0.06100
H45         H  0.97818690  0.66220932  0.66337497     0.05950
C46         C  0.02152509  0.74859767  0.50461612     0.02980
C47         C  0.02279171  0.71937223  0.55264063    -0.13170
C48         C  0.00180463  0.66753112  0.55330191     0.00480
C49         C  0.97714516  0.64995412  0.50714070    -0.11690
C50         C  0.99426442  0.66857049  0.45793356     0.02980
C51         C  0.01433369  0.72071452  0.45624815    -0.11110
H52         H  0.03702674  0.73755306  0.58874397     0.08570
H53         H  0.95218506  0.61569789  0.50856461     0.06100
H54         H  0.02196673  0.73965735  0.41868137     0.05950
C55         C  0.97405010  0.57741981  0.33794836     0.02980
C56         C  0.97989047  0.62681619  0.36476054    -0.13170
C57         C  0.00041431  0.62695197  0.41619777     0.00480
C58         C  0.01981339  0.57924735  0.43409323    -0.11690
C59         C  0.99633463  0.53152561  0.41836149     0.02980
C60         C  0.97386852  0.53005142  0.36806229    -0.11110
H61         H  0.97129072  0.66370251  0.34550249     0.08570
H62         H  0.04553684  0.57962961  0.46693193     0.06100
H63         H  0.96050682  0.49275300  0.35119592     0.05950
C64         C  0.02419605  0.41148990  0.50257456     0.02980
C65         C  0.02490663  0.43844967  0.55181223    -0.13170
C66         C  0.00284003  0.48866455  0.55451511     0.00480
C67         C  0.97611589  0.50560633  0.50971348    -0.11690
C68         C  0.99174636  0.48947435  0.45955665     0.02980
C69         C  0.01392500  0.43984300  0.45570543    -0.11110
H70         H  0.03990295  0.41995894  0.58702004     0.08570
H71         H  0.95021989  0.53763820  0.51329232     0.06100
H72         H  0.02114075  0.42264247  0.41740377     0.05950
C73         C  0.50341592  0.04337870  0.66251668     0.02980
C74         C  0.45711467  0.05748252  0.63495381    -0.13170
C75         C  0.46241729  0.08040186  0.58513080     0.00480
C76         C  0.51382643  0.09277930  0.56812914    -0.11690
C77         C  0.55586289  0.06224465  0.58416769     0.02980
C78         C  0.55196967  0.03959398  0.63463023    -0.11110
H79         H  0.41847411  0.05287619  0.65295894     0.08570
H80         H  0.51937597  0.11843023  0.53538813     0.06100
H81         H  0.58604670  0.02209813  0.65268966     0.05950
C82         C  0.67578053  0.07588665  0.49466748     0.02980
C83         C  0.64821009  0.06910972  0.54309091    -0.13170
C84         C  0.59575546  0.05013919  0.54232500     0.00480
C85         C  0.57560214  0.03329098  0.49335734    -0.11690
C86         C  0.59416985  0.05654670  0.44645019     0.02980
C87         C  0.64620383  0.07708616  0.44699513    -0.11110
H88         H  0.66732285  0.07719079  0.58049501     0.08570
H89         H  0.54104320  0.00820918  0.49238277     0.06100
H90         H  0.66402490  0.09194850  0.41095787     0.05950
C91         C  0.50138654  0.05576444  0.32574805     0.02980
C92         C  0.54916652  0.04907063  0.35468819    -0.13170
C93         C  0.55344270  0.07019667  0.40576377     0.00480
C94         C  0.51092226  0.09924859  0.42331714    -0.11690
C95         C  0.45958214  0.08656528  0.40588621     0.02980
C96         C  0.45466557  0.06751454  0.35430212    -0.11110
H97         H  0.58274625  0.03049253  0.33685240     0.08570
H98         H  0.51586677  0.12358568  0.45716461     0.06100
H99         H  0.41586082  0.06376485  0.33659908     0.05950
C100        C  0.34076311  0.10495419  0.49838970     0.02980
C101        C  0.37092615  0.10221609  0.54568774    -0.13170
C102        C  0.42064073  0.07959349  0.54339075     0.00480
C103        C  0.43546270  0.05895561  0.49508160    -0.11690
C104        C  0.41829416  0.08111943  0.44825752     0.02980
C105        C  0.36742991  0.10169009  0.44893693    -0.11110
H106        H  0.35436185  0.11320570  0.58331491     0.08570
H107        H  0.46762550  0.03338223  0.49379773     0.06100
H108        H  0.34829352  0.11182561  0.41231690     0.05950
O109        O  0.08828252  0.08498448  0.54248877    -0.73090
O110        O  0.92985469  0.07917454  0.54389688    -0.74070
O111        O  0.01054408  0.00220055  0.54363096    -0.62690
O112        O  0.00925555  0.16019352  0.54330596    -0.71100
O113        O  0.00675183  0.16002732  0.45574794    -0.70650
O114        O  0.01300129  0.00162242  0.45624989    -0.61910
O115        O  0.92993407  0.07663256  0.45654943    -0.74410
O116        O  0.08791609  0.08705046  0.45501422    -0.73190
Cu117      Cu  0.00932289  0.08137614  0.54637742     1.04560
Cu118      Cu  0.00913797  0.08103942  0.45281102     1.04330
C119        C  0.11288282  0.08912075  0.49867053     0.93110
C120        C  0.90483609  0.07862358  0.50016287     0.92250
C121        C  0.01389431  0.97700561  0.50021443     0.84390
C122        C  0.00844734  0.18487638  0.49952437     0.90670
O123        O  0.54280914  0.98759445  0.99147351    -0.73090
O124        O  0.53801643  0.14617959  0.99259766    -0.74070
O125        O  0.53771374  0.06538069  0.07195125    -0.62690
O126        O  0.54386594  0.06643932  0.91429400    -0.71100
O127        O  0.45608145  0.06195280  0.91141991    -0.70650
O128        O  0.45028906  0.06257380  0.07020139    -0.61910
O129        O  0.45056572  0.14176664  0.99006456    -0.74410
O130        O  0.45497884  0.98365775  0.99077836    -0.73190
Cu131      Cu  0.54363060  0.06683586  0.99297490     1.04560
Cu132      Cu  0.44990984  0.06248632  0.99065312     1.04330
C133        C  0.49932290  0.96088400  0.98977150     0.93110
C134        C  0.49367656  0.16912582  0.98972801     0.92250
C135        C  0.49347754  0.06233413  0.09627006     0.84390
C136        C  0.50089332  0.06291252  0.88816125     0.90670
O137        O  0.99070414  0.62001572  0.08578970    -0.73090
O138        O  0.99775192  0.61760558  0.92813300    -0.74070
O139        O  0.91606522  0.62034772  0.00414009    -0.62690
O140        O  0.07473725  0.61702687  0.01145696    -0.71100
O141        O  0.07013658  0.52949111  0.00797284    -0.70650
O142        O  0.91177785  0.53279462  0.00859191    -0.61910
O143        O  0.98981476  0.53020879  0.92856235    -0.74410
O144        O  0.99013651  0.53236837  0.08659869    -0.73190
Cu145      Cu  0.99525953  0.62182296  0.00714956     1.04560
Cu146      Cu  0.99059125  0.52815217  0.00781925     1.04330
C147        C  0.98785314  0.57639852  0.11090630     0.93110
C148        C  0.99241937  0.57385104  0.90335733     0.92250
C149        C  0.88903395  0.57709029  0.00682471     0.84390
C150        C  0.09743113  0.57258486  0.01102477     0.90670
C151        C  0.28221367  0.10312128  0.50064800    -0.06270
C152        C  0.25335452  0.13559410  0.46706999    -0.17400
C153        C  0.19806163  0.13233619  0.46568535     0.10930
C154        C  0.17073452  0.09601575  0.49891537    -0.06190
C155        C  0.19934767  0.06423375  0.53294260    -0.17430
C156        C  0.25439671  0.06601963  0.53304266     0.10960
S157        S  0.16497649  0.17637497  0.42157182    -0.32390
S158        S  0.28591036  0.01607644  0.57173920    -0.32400
H159        H  0.32292839  0.00378421  0.53259607     0.28970
H160        H  0.12185750  0.18485671  0.45500344     0.28960
H161        H  0.27398005  0.16379551  0.44180206     0.19560
H162        H  0.17860869  0.03557881  0.55769167     0.19560
C163        C  0.50076292  0.05473579  0.26688283    -0.06270
C164        C  0.45724311  0.03165626  0.24018771    -0.17400
C165        C  0.45255170  0.03423045  0.18512884     0.10930
C166        C  0.49356377  0.05881534  0.15491487    -0.06190
C167        C  0.53723377  0.08129692  0.18168145    -0.17430
C168        C  0.54037287  0.08138002  0.23664924     0.10960
S169        S  0.39241237  0.00630539  0.15735930    -0.32390
S170        S  0.59342626  0.12103242  0.26507610    -0.32400
H171        H  0.56139574  0.14426231  0.30345370     0.28970
H172        H  0.41564607  0.98467023  0.11265160     0.28960
H173        H  0.42610563  0.01169499  0.26239699     0.19560
H174        H  0.56827127  0.10167754  0.15962233     0.19560
C175        C  0.73454188  0.07892928  0.49400891    -0.06270
C176        C  0.76172483  0.11070347  0.53105804    -0.17400
C177        C  0.81702765  0.11156587  0.53432708     0.10930
C178        C  0.84644096  0.08031776  0.49926072    -0.06190
C179        C  0.81935571  0.04943148  0.46165824    -0.17430
C180        C  0.76420281  0.04708902  0.45964477     0.10960
S181        S  0.84698016  0.15402332  0.58366895    -0.32390
S182        S  0.73466897  0.99900767  0.41534520    -0.32400
H183        H  0.69579081  0.98116884  0.45127404     0.28970
H184        H  0.89142117  0.16918756  0.55371140     0.28960
H185        H  0.73974102  0.13520964  0.55772773     0.19560
H186        H  0.84136473  0.02473868  0.43513732     0.19560
C187        C  0.50286514  0.04545580  0.72050680    -0.06270
C188        C  0.49578739  0.09529475  0.74318112    -0.17400
C189        C  0.49691862  0.10248839  0.79760055     0.10930
C190        C  0.50324010  0.05849816  0.83061559    -0.06190
C191        C  0.51110281  0.00862692  0.80820471    -0.17430
C192        C  0.51120414  0.00162413  0.75337862     0.10960
S193        S  0.49155618  0.16895688  0.82185446    -0.32390
S194        S  0.52138333  0.93619561  0.72817878    -0.32400
H195        H  0.49523813  0.94295245  0.67990937     0.28970
H196        H  0.52027735  0.16199414  0.86859525     0.28960
H197        H  0.49068428  0.12935166  0.71799142     0.19560
H198        H  0.51655660  0.97485236  0.83360828     0.19560
C199        C  0.01163492  0.24264275  0.49962017    -0.06270
C200        C  0.05932742  0.26732440  0.51589334    -0.17400
C201        C  0.06585315  0.32238057  0.51564129     0.10930
C202        C  0.02318640  0.35339004  0.50037221    -0.06190
C203        C  0.97545054  0.32857375  0.48455604    -0.17430
C204        C  0.96910863  0.27371863  0.48367410     0.10960
S205        S  0.12954849  0.35039590  0.53367958    -0.32390
S206        S  0.90481640  0.24737360  0.46425631    -0.32400
H207        H  0.91510934  0.19343389  0.46412804     0.28970
H208        H  0.12556978  0.39697622  0.50402464     0.28960
H209        H  0.09208446  0.24345347  0.52793881     0.19560
H210        H  0.94229461  0.35241337  0.47351624     0.19560
C211        C  0.98180590  0.57644701  0.16856303    -0.06270
C212        C  0.01343251  0.54297632  0.19787925    -0.17400
C213        C  0.01143090  0.54236830  0.25291489     0.10930
C214        C  0.97522581  0.57486737  0.27956649    -0.06190
C215        C  0.94320721  0.60812703  0.24998976    -0.17430
C216        C  0.94588668  0.60905545  0.19489935     0.10960
S217        S  0.05916374  0.50356378  0.28793338    -0.32390
S218        S  0.90130454  0.65134134  0.16053168    -0.32400
H219        H  0.89089718  0.61573369  0.11909692     0.28970
H220        H  0.07948330  0.47693901  0.24409369     0.28960
H221        H  0.04140970  0.51875062  0.17742839     0.19560
H222        H  0.91561029  0.63323812  0.26990062     0.19560
C223        C  0.02166794  0.80725948  0.50535077    -0.06270
C224        C  0.05540714  0.83625312  0.47149136    -0.17400
C225        C  0.05441604  0.89158924  0.46942413     0.10930
C226        C  0.01846948  0.91890082  0.50144450    -0.06190
C227        C  0.98532045  0.88999669  0.53565700    -0.17430
C228        C  0.98550100  0.83487609  0.53704558     0.10960
S229        S  0.10134350  0.92504005  0.42672046    -0.32390
S230        S  0.93543700  0.80241543  0.57707744    -0.32400
H231        H  0.92302127  0.76274185  0.53995696     0.28970
H232        H  0.11131342  0.96786191  0.46091417     0.28960
H233        H  0.08308543  0.81570213  0.44686310     0.19560
H234        H  0.95721077  0.91047618  0.55989089     0.19560
C235        C  0.98876377  0.57847282  0.73349142    -0.06270
C236        C  0.95473266  0.54322988  0.76068685    -0.17400
C237        C  0.95470076  0.54073238  0.81590844     0.10930
C238        C  0.98947008  0.57438277  0.84510465    -0.06190
C239        C  0.02296393  0.60990294  0.81794796    -0.17430
C240        C  0.02415131  0.61130813  0.76295361     0.10960
S241        S  0.90847079  0.49457922  0.84622715    -0.32390
S242        S  0.07509335  0.65276902  0.73332071    -0.32400
H243        H  0.08860581  0.61577749  0.69460943     0.28970
H244        H  0.89677334  0.52660151  0.88956524     0.28960
H245        H  0.92769370  0.51760990  0.73878082     0.19560
H246        H  0.05039177  0.63519555  0.83980794     0.19560
C247        C  0.26621768  0.56302147  0.02879084    -0.06270
C248        C  0.24013701  0.53731392  0.98672720    -0.17400
C249        C  0.18564237  0.54132810  0.97907656     0.10930
C250        C  0.15565546  0.57068332  0.01493306    -0.06190
C251        C  0.18148063  0.59620407  0.05726532    -0.17430
C252        C  0.23623332  0.59238779  0.06478740     0.10960
S253        S  0.15727304  0.51086309  0.92096738    -0.32390
S254        S  0.26515238  0.62452487  0.12168429    -0.32400
H255        H  0.30823051  0.59099031  0.12636657     0.28970
H256        H  0.11902331  0.54919225  0.91249522     0.28960
H257        H  0.26290436  0.51602093  0.95793885     0.19560
H258        H  0.15862548  0.61821303  0.08540286     0.19560
C259        C  0.49551312  0.34009669  0.98577452    -0.06270
C260        C  0.45548291  0.31122091  0.95924848    -0.17400
C261        C  0.45311115  0.25585030  0.95996905     0.10930
C262        C  0.49291327  0.22773671  0.98654939    -0.06190
C263        C  0.53337717  0.25661008  0.01224396    -0.17430
C264        C  0.53410892  0.31177512  0.01389356     0.10960
S265        S  0.39762109  0.22471049  0.92647119    -0.32390
S266        S  0.58252089  0.34259524  0.05708006    -0.32400
H267        H  0.54741611  0.37905311  0.07829704     0.28970
H268        H  0.42466864  0.18113602  0.90772308     0.28960
H269        H  0.42542981  0.33190111  0.93776312     0.19560
H270        H  0.56331850  0.23590667  0.03394934     0.19560
C271        C  0.72007921  0.57994372  0.02054815    -0.06270
C272        C  0.74627685  0.60989770  0.98131516    -0.17400
C273        C  0.80108022  0.60933050  0.97542951     0.10930
C274        C  0.83103691  0.57819177  0.00970505    -0.06190
C275        C  0.80524291  0.54900560  0.04964610    -0.17430
C276        C  0.75032950  0.55027731  0.05606059     0.10960
S277        S  0.82962082  0.64720669  0.92176372    -0.32390
S278        S  0.72190210  0.51541504  0.11160561    -0.32400
H279        H  0.67803804  0.54783347  0.11696415     0.28970
H280        H  0.87144172  0.61349272  0.91149306     0.28960
H281        H  0.72356811  0.63223672  0.95328120     0.19560
H282        H  0.82827308  0.52622357  0.07704524     0.19560
C283        C  0.49989054  0.90320697  0.98516809    -0.06270
C284        C  0.51394918  0.88084689  0.93669770    -0.17400
C285        C  0.50971688  0.82613969  0.92853867     0.10930
C286        C  0.49059147  0.79336550  0.96963767    -0.06190
C287        C  0.47714846  0.81597516  0.01809822    -0.17430
C288        C  0.48258223  0.87015152  0.02660336     0.10960
S289        S  0.52836918  0.80088018  0.86503890    -0.32390
S290        S  0.46959353  0.89397066  0.09201507    -0.32400
H291        H  0.50458691  0.93799701  0.08968949     0.28970
H292        H  0.49705589  0.75425010  0.86742303     0.28960
H293        H  0.52730858  0.90623745  0.90474912     0.19560
H294        H  0.46446129  0.79077360  0.05051118     0.19560
loop_ 
_geom_bond_atom_site_label_1 
_geom_bond_atom_site_label_2 
_geom_bond_distance 
_geom_bond_site_symmetry_2 
_ccdc_geom_bond_type 
C1            C2   1.423       .  A
C1            C6   1.420       .  A
C1          C286   1.473       .  S
C2            C3   1.401   1_556  A
C2            H7   1.083       .  S
C3            C4   1.398       .  A
C3           C30   1.502   1_554  S
C4            C5   1.395   1_554  A
C4            H8   1.061       .  S
C5            C6   1.401       .  A
C5           C12   1.498       .  S
C6            H9   1.083       .  S
C10          C11   1.421       .  A
C10          C15   1.424       .  A
C10         C271   1.483       .  S
C11          C12   1.399   1_554  A
C11          H16   1.083       .  S
C12          C13   1.400       .  A
C13          C14   1.399       .  A
C13          H17   1.065       .  S
C14          C15   1.402   1_556  A
C14          C21   1.503   1_556  S
C15          H18   1.082       .  S
C19          C20   1.426       .  A
C19          C24   1.429       .  A
C19         C259   1.494       .  S
C20          C21   1.401   1_556  A
C20          H25   1.083       .  S
C21          C22   1.397       .  A
C22          C23   1.400       .  A
C22          H26   1.061       .  S
C23          C24   1.404   1_554  A
C23          C32   1.510       .  S
C24          H27   1.082       .  S
C28          C29   1.425       .  A
C28          C33   1.429       .  A
C28         C247   1.484       .  S
C29          C30   1.401   1_554  A
C29          H34   1.083       .  S
C30          C31   1.394       .  A
C31          C32   1.394   1_556  A
C31          H35   1.059       .  S
C32          C33   1.406       .  A
C33          H36   1.083       .  S
C37          C38   1.424       .  A
C37          C42   1.425       .  A
C37         C235   1.487       .  S
C38          C39   1.402   1_655  A
C38          H43   1.082       .  S
C39          C40   1.401       .  A
C39          C66   1.505       .  S
C40          C41   1.401       .  A
C40          H44   1.063       .  S
C41          C42   1.402   1_455  A
C41          C48   1.506       .  S
C42          H45   1.083       .  S
C46          C47   1.427       .  A
C46          C51   1.426       .  A
C46         C223   1.487       .  S
C47          C48   1.403       .  A
C47          H52   1.083       .  S
C48          C49   1.395   1_455  A
C49          C50   1.400       .  A
C49          H53   1.060       .  S
C50          C51   1.403   1_655  A
C50          C57   1.506   1_655  S
C51          H54   1.083       .  S
C55          C56   1.429       .  A
C55          C60   1.423       .  A
C55         C214   1.484       .  S
C56          C57   1.405   1_655  A
C56          H61   1.082       .  S
C57          C58   1.394       .  A
C58          C59   1.391   1_455  A
C58          H62   1.057       .  S
C59          C60   1.398       .  A
C59          C68   1.495       .  S
C60          H63   1.083       .  S
C64          C65   1.424       .  A
C64          C69   1.417       .  A
C64         C202   1.473       .  S
C65          C66   1.406       .  A
C65          H70   1.083       .  S
C66          C67   1.397   1_455  A
C67          C68   1.398       .  A
C67          H71   1.062       .  S
C68          C69   1.395   1_655  A
C69          H72   1.083       .  S
C73          C74   1.419       .  A
C73          C78   1.424       .  A
C73         C187   1.473       .  S
C74          C75   1.397       .  A
C74          H79   1.083       .  S
C75          C76   1.398       .  A
C75         C102   1.496       .  S
C76          C77   1.394       .  A
C76          H80   1.062       .  S
C77          C78   1.406       .  A
C77          C84   1.504       .  S
C78          H81   1.083       .  S
C82          C83   1.422       .  A
C82          C87   1.423       .  A
C82         C175   1.487       .  S
C83          C84   1.400       .  A
C83          H88   1.082       .  S
C84          C85   1.405       .  A
C85          C86   1.404       .  A
C85          H89   1.067       .  S
C86          C87   1.403       .  A
C86          C93   1.506       .  S
C87          H90   1.083       .  S
C91          C92   1.429       .  A
C91          C96   1.426       .  A
C91         C163   1.495       .  S
C92          C93   1.406       .  A
C92          H97   1.083       .  S
C93          C94   1.394       .  A
C94          C95   1.401       .  A
C94          H98   1.063       .  S
C95          C96   1.400       .  A
C95         C104   1.504       .  S
C96          H99   1.082       .  S
C100        C101   1.425       .  A
C100        C105   1.429       .  A
C100        C151   1.483       .  S
C101        C102   1.399       .  A
C101        H106   1.083       .  S
C102        C103   1.389       .  A
C103        C104   1.389       .  A
C103        H107   1.055       .  S
C104        C105   1.403       .  A
C105        H108   1.082       .  S
O109       Cu117   2.001       .  S
O109        C119   1.278       .  A
O110       Cu117   2.012   1_655  S
O110        C120   1.278       .  A
O111       Cu117   2.009       .  S
O111        C121   1.278   1_545  A
O112       Cu117   1.999       .  S
O112        C122   1.276       .  A
O113       Cu118   2.006       .  S
O113        C122   1.277       .  A
O114       Cu118   2.020       .  S
O114        C121   1.279   1_545  A
O115       Cu118   2.007   1_655  S
O115        C120   1.278       .  A
O116       Cu118   1.996       .  S
O116        C119   1.276       .  A
Cu117      Cu118   2.375       .  S
C119        C154   1.470       .  S
C120        C178   1.480       .  S
C121        C226   1.481       .  S
C122        C199   1.464       .  S
O123       Cu131   2.008   1_565  S
O123        C133   1.277       .  A
O124       Cu131   2.020       .  S
O124        C134   1.281       .  A
O125       Cu131   2.011   1_554  S
O125        C135   1.279       .  A
O126       Cu131   1.997       .  S
O126        C136   1.275       .  A
O127       Cu132   2.017       .  S
O127        C136   1.279       .  A
O128       Cu132   2.019   1_554  S
O128        C135   1.278       .  A
O129       Cu132   2.009       .  S
O129        C134   1.276       .  A
O130       Cu132   2.005   1_565  S
O130        C133   1.277       .  A
Cu131      Cu132   2.373       .  S
C133        C283   1.467       .  S
C134        C262   1.488       .  S
C135        C166   1.491       .  S
C136        C190   1.466       .  S
O137       Cu145   2.000       .  S
O137        C147   1.276       .  A
O138       Cu145   2.010   1_556  S
O138        C148   1.279       .  A
O139       Cu145   2.005       .  S
O139        C149   1.278       .  A
O140       Cu145   2.022   1_455  S
O140        C150   1.279       .  A
O141       Cu146   2.013   1_455  S
O141        C150   1.278       .  A
O142       Cu146   2.002       .  S
O142        C149   1.277       .  A
O143       Cu146   2.013   1_556  S
O143        C148   1.278       .  A
O144       Cu146   2.003       .  S
O144        C147   1.278       .  A
Cu145      Cu146   2.373       .  S
C147        C211   1.472       .  S
C148        C238   1.481       .  S
C149        C274   1.471       .  S
C150        C250   1.479       .  S
C151        C152   1.404       .  A
C151        C156   1.421       .  A
C152        C153   1.400       .  A
C152        H161   1.083       .  S
C153        C154   1.415       .  A
C153        S157   1.803       .  S
C154        C155   1.397       .  A
C155        C156   1.393       .  A
C155        H162   1.085       .  S
C156        S158   1.805       .  S
S157        H160   1.404       .  S
S158        H159   1.407       .  S
C163        C164   1.406       .  A
C163        C168   1.419       .  A
C164        C165   1.404       .  A
C164        H173   1.083       .  S
C165        C166   1.421       .  A
C165        S169   1.804       .  S
C166        C167   1.404       .  A
C167        C168   1.398       .  A
C167        H174   1.084       .  S
C168        S170   1.805       .  S
S169        H172   1.398   1_545  S
S170        H171   1.407       .  S
C175        C176   1.405       .  A
C175        C180   1.418       .  A
C176        C177   1.402       .  A
C176        H185   1.083       .  S
C177        C178   1.417       .  A
C177        S181   1.804       .  S
C178        C179   1.401       .  A
C179        C180   1.397       .  A
C179        H186   1.084       .  S
C180        S182   1.805   1_545  S
S181        H184   1.403       .  S
S182        H183   1.407       .  S
C187        C188   1.404       .  A
C187        C192   1.410       .  A
C188        C189   1.394       .  A
C188        H197   1.085       .  S
C189        C190   1.407       .  A
C189        S193   1.802       .  S
C190        C191   1.405       .  A
C191        C192   1.403       .  A
C191        H198   1.083   1_545  S
C192        S194   1.803   1_545  S
S193        H196   1.405       .  S
S194        H195   1.405       .  S
C199        C200   1.406       .  A
C199        C204   1.411   1_455  A
C200        C201   1.400       .  A
C200        H209   1.084       .  S
C201        C202   1.408       .  A
C201        S205   1.802       .  S
C202        C203   1.405   1_455  A
C203        C204   1.395       .  A
C203        H210   1.085       .  S
C204        S206   1.810       .  S
S205        H208   1.406       .  S
S206        H207   1.399       .  S
C211        C212   1.397   1_655  A
C211        C216   1.414       .  A
C212        C213   1.398       .  A
C212        H221   1.083       .  S
C213        C214   1.421   1_455  A
C213        S217   1.812       .  S
C214        C215   1.403       .  A
C215        C216   1.400       .  A
C215        H222   1.084       .  S
C216        S218   1.803       .  S
S217        H220   1.407       .  S
S218        H219   1.406       .  S
C223        C224   1.405       .  A
C223        C228   1.419   1_455  A
C224        C225   1.404       .  A
C224        H233   1.084       .  S
C225        C226   1.416       .  A
C225        S229   1.802       .  S
C226        C227   1.400   1_455  A
C227        C228   1.397       .  A
C227        H234   1.084       .  S
C228        S230   1.805       .  S
S229        H232   1.407       .  S
S230        H231   1.407       .  S
C235        C236   1.405       .  A
C235        C240   1.418   1_655  A
C236        C237   1.403       .  A
C236        H245   1.084       .  S
C237        C238   1.417       .  A
C237        S241   1.804       .  S
C238        C239   1.401   1_655  A
C239        C240   1.397       .  A
C239        H246   1.084       .  S
C240        S242   1.805       .  S
S241        H244   1.404       .  S
S242        H243   1.407       .  S
C247        C248   1.406   1_554  A
C247        C252   1.413       .  A
C248        C249   1.400       .  A
C248        H257   1.084       .  S
C249        C250   1.411   1_556  A
C249        S253   1.804       .  S
C250        C251   1.406       .  A
C251        C252   1.405       .  A
C251        H258   1.084       .  S
C252        S254   1.803       .  S
S253        H256   1.407       .  S
S254        H255   1.406       .  S
C259        C260   1.405       .  A
C259        C264   1.421   1_556  A
C260        C261   1.403       .  A
C260        H269   1.083       .  S
C261        C262   1.420       .  A
C261        S265   1.804       .  S
C262        C263   1.403   1_556  A
C263        C264   1.398       .  A
C263        H270   1.084       .  S
C264        S266   1.805       .  S
S265        H268   1.399       .  S
S266        H267   1.407       .  S
C271        C272   1.407   1_554  A
C271        C276   1.413       .  A
C272        C273   1.396       .  A
C272        H281   1.084       .  S
C273        C274   1.410   1_556  A
C273        S277   1.806       .  S
C274        C275   1.405       .  A
C275        C276   1.401       .  A
C275        H282   1.084       .  S
C276        S278   1.803       .  S
S277        H280   1.404       .  S
S278        H279   1.406       .  S
C283        C284   1.405       .  A
C283        C288   1.407   1_556  A
C284        C285   1.403       .  A
C284        H293   1.083       .  S
C285        C286   1.411       .  A
C285        S289   1.803       .  S
C286        C287   1.403   1_556  A
C287        C288   1.393       .  A
C287        H294   1.085       .  S
C288        S290   1.800       .  S
S289        H292   1.406       .  S
S290        H291   1.406       .  S
