geometry optimzed in LAMMPS
_audit_creation_date              2020-12-01 
_audit_creation_method            'lammps2cif' 
_symmetry_space_group_name_H-M    'P1' 
_symmetry_Int_Tables_number       1 
_symmetry_cell_setting            triclinic 
loop_ 
_symmetry_equiv_pos_as_xyz 
  x,y,z 
_cell_length_a                    31.97510933 
_cell_length_b                    27.87284586284775 
_cell_length_c                    27.567455647447066 
_cell_angle_alpha                 89.9990185178194 
_cell_angle_beta                  89.99909978921164 
_cell_angle_gamma                 89.99826035541939 
loop_ 
_atom_site_label 
_atom_site_type_symbol 
_atom_site_fract_x 
_atom_site_fract_y 
_atom_site_fract_z 
_atom_site_charge 
C1          C  0.36411937  0.85411331  0.59805119     0.07000
C2          C  0.35049490  0.88397406  0.56007432    -0.09100
C3          C  0.37992832  0.90913071  0.53218716     0.04500
C4          C  0.42260213  0.90439977  0.54235801    -0.07600
C5          C  0.43624236  0.87468813  0.57999341     0.07000
C6          C  0.40702340  0.84953613  0.60793737    -0.07100
H7          H  0.31743090  0.88717331  0.55201069     0.12600
H8          H  0.44537248  0.92356750  0.52050283     0.10200
H9          H  0.41761037  0.82610274  0.63684183     0.10000
C10         C  0.63454255  0.85400342  0.59873362     0.07000
C11         C  0.64832799  0.88384771  0.56082311    -0.09100
C12         C  0.61901685  0.90902139  0.53278055     0.04500
C13         C  0.57630121  0.90432258  0.54273057    -0.07600
C14         C  0.56250066  0.87462657  0.58030100     0.07000
C15         C  0.59159891  0.84945628  0.60839880    -0.07100
H16         H  0.68142471  0.88702418  0.55293189     0.12600
H17         H  0.55362575  0.92350669  0.52075724     0.10200
H18         H  0.58088964  0.82603623  0.63725335     0.10000
C19         C  0.63507057  0.05055591  0.35189455     0.07000
C20         C  0.59217168  0.05506004  0.34194441    -0.09100
C21         C  0.56295966  0.02977151  0.36977240     0.04500
C22         C  0.57660354  0.99999442  0.40735410    -0.07600
C23         C  0.61927264  0.99534028  0.41759086     0.07000
C24         C  0.64869755  0.02063430  0.38982020    -0.07100
H25         H  0.58158156  0.07855084  0.31308919     0.12600
H26         H  0.55383805  0.98073089  0.42912968     0.10200
H27         H  0.68175578  0.01750194  0.39794269     0.10000
C28         C  0.36466567  0.05061131  0.35116603     0.07000
C29         C  0.40760521  0.05509599  0.34144265    -0.09100
C30         C  0.43670009  0.02981040  0.36944114     0.04500
C31         C  0.42289879  0.00005834  0.40696655    -0.07600
C32         C  0.38018790  0.99542508  0.41697658     0.07000
C33         C  0.35088178  0.02071449  0.38903444    -0.07100
H34         H  0.41831543  0.07856810  0.31263195     0.12600
H35         H  0.44557185  0.98079667  0.42887370     0.10200
H36         H  0.31779066  0.01759775  0.39698169     0.10000
C37         C  0.36460597  0.35422499  0.35176054     0.07000
C38         C  0.35082688  0.38407147  0.38967258    -0.09100
C39         C  0.38014056  0.40928171  0.41767661     0.04500
C40         C  0.42285287  0.40461764  0.40768352    -0.07600
C41         C  0.43664640  0.37491632  0.37011255     0.07000
C42         C  0.40754492  0.34971239  0.34205435    -0.07100
H43         H  0.31773425  0.38721336  0.39760162     0.12600
H44         H  0.44553182  0.42381943  0.42963390     0.10200
H45         H  0.41824967  0.32628275  0.31320557     0.10000
C46         C  0.63502062  0.35417446  0.35249361     0.07000
C47         C  0.64863884  0.38401013  0.39049170    -0.09100
C48         C  0.61920550  0.40921542  0.41833445     0.04500
C49         C  0.57653821  0.40456008  0.40809883    -0.07600
C50         C  0.56290205  0.37487238  0.37044512     0.07000
C51         C  0.59212079  0.34967016  0.34254381    -0.07100
H52         H  0.68169737  0.38715005  0.39860819     0.12600
H53         H  0.55376772  0.42376141  0.42992465     0.10200
H54         H  0.58153629  0.32625213  0.31362700     0.10000
C55         C  0.36407695  0.55058859  0.59875452     0.07000
C56         C  0.35045323  0.52073057  0.56077626    -0.09100
C57         C  0.37987983  0.49546400  0.53297928     0.04500
C58         C  0.42254653  0.50008230  0.54324285    -0.07600
C59         C  0.43618764  0.52979469  0.58087614     0.07000
C60         C  0.40697449  0.55505469  0.60873075    -0.07100
H61         H  0.31739694  0.51762854  0.55263265     0.12600
H62         H  0.44531337  0.48084214  0.52144720     0.10200
H63         H  0.41756325  0.57849816  0.63762449     0.10000
C64         C  0.63448724  0.55056071  0.59945112     0.07000
C65         C  0.64825562  0.52068186  0.56156251    -0.09100
C66         C  0.61893925  0.49540885  0.53362443     0.04500
C67         C  0.57623175  0.50003960  0.54365853    -0.07600
C68         C  0.56244501  0.52977469  0.58120563     0.07000
C69         C  0.59155164  0.55504408  0.60920053    -0.07100
H70         H  0.68134350  0.51756889  0.55359438     0.12600
H71         H  0.55355041  0.48079300  0.52175158     0.10200
H72         H  0.58085346  0.57850547  0.63802594     0.10000
C73         C  0.86410730  0.85464623  0.85186389     0.07000
C74         C  0.90700992  0.85022965  0.84189305    -0.09100
C75         C  0.93619640  0.87553139  0.86974316     0.04500
C76         C  0.92252463  0.90523651  0.90736811    -0.07600
C77         C  0.87985283  0.90980756  0.91762887     0.07000
C78         C  0.85045171  0.88449792  0.88983554    -0.07100
H79         H  0.91762392  0.82679401  0.81300420     0.12600
H80         H  0.94527217  0.92450999  0.92915852     0.10200
H81         H  0.81739177  0.88756470  0.89797434     0.10000
C82         C  0.13448810  0.85479946  0.85105628     0.07000
C83         C  0.09154579  0.85032359  0.84134994    -0.09100
C84         C  0.06246338  0.87563743  0.86933934     0.04500
C85         C  0.07628071  0.90541159  0.90683792    -0.07600
C86         C  0.11899569  0.91003424  0.91683201     0.07000
C87         C  0.14828854  0.88471557  0.88889879    -0.07100
H88         H  0.08082318  0.82683073  0.81256388     0.12600
H89         H  0.05361718  0.92468935  0.92874386     0.10200
H90         H  0.18138183  0.88781936  0.89683792     0.10000
C91         C  0.86462846  0.05107984  0.09882779     0.07000
C92         C  0.85082116  0.02122151  0.06093847    -0.09100
C93         C  0.88011672  0.99603301  0.03288360     0.04500
C94         C  0.92283867  0.00073247  0.04280373    -0.07600
C95         C  0.93665929  0.03044401  0.08035172     0.07000
C96         C  0.90757654  0.05562523  0.10845954    -0.07100
H97         H  0.81772062  0.01805168  0.05306801     0.12600
H98         H  0.94550322  0.98154535  0.02081807     0.10200
H99         H  0.91830231  0.07906034  0.13729232     0.10000
C100        C  0.13503283  0.05119559  0.09802003     0.07000
C101        C  0.14867793  0.02140281  0.05999848    -0.09100
C102        C  0.11926271  0.99624437  0.03208885     0.04500
C103        C  0.07658717  0.00090574  0.04228004    -0.07600
C104        C  0.06292542  0.03054792  0.07995891     0.07000
C105        C  0.09212559  0.05570288  0.10792654    -0.07100
H106        H  0.18174327  0.01825497  0.05192061     0.12600
H107        H  0.05383126  0.98173416  0.02040939     0.10200
H108        H  0.08152147  0.07908226  0.13686668     0.10000
C109        C  0.86411490  0.55089127  0.85238780     0.07000
C110        C  0.90701774  0.55538981  0.84246060    -0.09100
C111        C  0.93622193  0.53018495  0.87037651     0.04500
C112        C  0.92256804  0.50049551  0.90802250    -0.07600
C113        C  0.87989499  0.49584483  0.91823578     0.07000
C114        C  0.85047609  0.52105568  0.89037747    -0.07100
H115        H  0.91761671  0.57881225  0.81355313     0.12600
H116        H  0.94532838  0.48129501  0.92986289     0.10200
H117        H  0.81741396  0.51792480  0.89847909     0.10000
C118        C  0.13450404  0.55105517  0.85173344     0.07000
C119        C  0.14830883  0.52122245  0.88964454    -0.09100
C120        C  0.11901714  0.49596963  0.91764164     0.04500
C121        C  0.07630202  0.50057693  0.90764406    -0.07600
C122        C  0.06248274  0.53026424  0.87007570     0.07000
C123        C  0.09156125  0.55551246  0.84202335    -0.07100
H124        H  0.18140369  0.51812218  0.89757674     0.12600
H125        H  0.05364011  0.48134129  0.92958953     0.10200
H126        H  0.08083570  0.57893063  0.81317509     0.10000
C127        C  0.86466797  0.35462098  0.09945635     0.07000
C128        C  0.85086912  0.38445846  0.06154764    -0.09100
C129        C  0.88016346  0.40971587  0.03356091     0.04500
C130        C  0.92287744  0.40511009  0.04356671    -0.07600
C131        C  0.93669264  0.37541731  0.08113337     0.07000
C132        C  0.90760964  0.35016414  0.10917664    -0.07100
H133        H  0.81777596  0.38755129  0.05360241     0.12600
H134        H  0.94554175  0.42434552  0.02162448     0.11400
H135        H  0.91833101  0.32673516  0.13801792     0.10000
C136        C  0.13505902  0.35467720  0.09872092     0.07000
C137        C  0.14869695  0.38453641  0.06075002    -0.09100
C138        C  0.11928012  0.40979481  0.03293325     0.04500
C139        C  0.07660866  0.40516664  0.04316903    -0.07600
C140        C  0.06295479  0.37545302  0.08079655     0.07000
C141        C  0.09215822  0.35020128  0.10867087    -0.07100
H142        H  0.18175687  0.38764621  0.05262783     0.12600
H143        H  0.05384917  0.42440129  0.02135835     0.10200
H144        H  0.08155962  0.32675726  0.13756060     0.10000
O145        O  0.19546219  0.65461650  0.73239271    -0.67900
O146        O  0.25426155  0.75060661  0.66210244    -0.68100
O147        O  0.25425263  0.65442533  0.66233399    -0.67900
O148        O  0.19546941  0.75075929  0.73215936    -0.68000
O149        O  0.24412679  0.75089805  0.78729972    -0.67900
O150        O  0.30290961  0.65456851  0.71747453    -0.67900
O151        O  0.30291654  0.75070897  0.71724556    -0.67900
O152        O  0.24412212  0.65472115  0.78753009    -0.68100
V153        V  0.22580035  0.70260454  0.69832880     1.35200
V154        V  0.27257900  0.70272202  0.75130528     1.35200
C155        C  0.20961359  0.63885085  0.77208591     0.81400
C156        C  0.28877136  0.76647329  0.67754977     0.81400
C157        C  0.28876022  0.63862124  0.67785604     0.81300
C158        C  0.20961979  0.76670336  0.77177863     0.81300
O159        O  0.80300658  0.75061912  0.73311052    -0.67900
O160        O  0.74420498  0.65433223  0.66324490    -0.68100
O161        O  0.74422384  0.75050513  0.66304497    -0.67900
O162        O  0.80298945  0.65447363  0.73330215    -0.68000
O163        O  0.75433172  0.65457927  0.78844388    -0.67900
O164        O  0.69555681  0.75060692  0.71817578    -0.67900
O165        O  0.69554622  0.65446984  0.71838543    -0.67900
O166        O  0.75434112  0.75076371  0.78824241    -0.68100
V167        V  0.77266765  0.70248546  0.69925868     1.35200
V168        V  0.72588429  0.70260312  0.75223119     1.35200
C169        C  0.78885310  0.76656310  0.77273042     0.81400
C170        C  0.70969182  0.63853743  0.67875877     0.81400
C171        C  0.70971075  0.76637126  0.67848317     0.81300
C172        C  0.78883428  0.63869665  0.77298791     0.81300
O173        O  0.30364024  0.25069522  0.23242495    -0.67900
O174        O  0.24486767  0.15468543  0.16213654    -0.68100
O175        O  0.24486545  0.25086478  0.16235407    -0.67900
O176        O  0.30364892  0.15455355  0.23220917    -0.68000
O177        O  0.25498120  0.15441239  0.28733891    -0.67900
O178        O  0.19619702  0.25072009  0.21748308    -0.67900
O179        O  0.19620194  0.15458075  0.21726849    -0.67900
O180        O  0.25496960  0.25058873  0.28755142    -0.68100
V181        V  0.27331637  0.20269628  0.19836271     1.35200
V182        V  0.22652734  0.20257686  0.25132855     1.35200
C183        C  0.28947839  0.26646422  0.27211175     0.81400
C184        C  0.21035428  0.13881836  0.17757517     0.81400
C185        C  0.21035348  0.26666522  0.17786619     0.81300
C186        C  0.28949625  0.13861613  0.27183112     0.81300
O187        O  0.69623402  0.15454134  0.23319564    -0.67900
O188        O  0.75501727  0.25084123  0.16333687    -0.68100
O189        O  0.75501395  0.15466687  0.16313396    -0.67900
O190        O  0.69623191  0.25067994  0.23339573    -0.68000
O191        O  0.74488753  0.25058323  0.28853793    -0.67900
O192        O  0.80368172  0.15456902  0.21826183    -0.67900
O193        O  0.80367762  0.25071242  0.21847383    -0.67900
O194        O  0.74489681  0.15440088  0.28832958    -0.68100
V195        V  0.72656431  0.20268049  0.19934838     1.35200
V196        V  0.77334708  0.20256905  0.25231995     1.35200
C197        C  0.71038706  0.13859936  0.27281505     0.81400
C198        C  0.78952703  0.26664404  0.17884860     0.81400
C199        C  0.78952487  0.13879725  0.17857365     0.81300
C200        C  0.71037748  0.26645119  0.27308712     0.81300
C201        C  0.18678176  0.30090297  0.15016652    -0.09400
C202        C  0.16456634  0.32693576  0.12653095    -0.10900
C203        C  0.98098518  0.37050942  0.08908527    -0.09400
C204        C  0.01869651  0.37052038  0.08898451    -0.10900
C205        C  0.83527203  0.32688101  0.12742390    -0.09400
C206        C  0.81310023  0.30086416  0.15113076    -0.10900
C207        C  0.13121446  0.46591798  0.95777045    -0.09400
C208        C  0.13129626  0.43985984  0.99274156    -0.10900
C209        C  0.18605127  0.60472775  0.79993967    -0.09400
C210        C  0.16389409  0.57876255  0.82372349    -0.10900
C211        C  0.86787992  0.46579884  0.95844128    -0.09400
C212        C  0.86796787  0.43975601  0.99342342    -0.10900
C213        C  0.01819084  0.53515899  0.86211817    -0.09400
C214        C  0.98048010  0.53513494  0.86220601    -0.10900
C215        C  0.83460545  0.57857441  0.82452137    -0.09400
C216        C  0.81239440  0.60454794  0.80081352    -0.10900
C217        C  0.18677222  0.10471942  0.14971181    -0.09400
C218        C  0.16454529  0.07880765  0.12595525    -0.10900
C219        C  0.98095309  0.03542189  0.08824819    -0.09400
C220        C  0.01866435  0.03546038  0.08813897    -0.10900
C221        C  0.81308499  0.10467615  0.15071123    -0.09400
C222        C  0.83523562  0.07873257  0.12689270    -0.10900
C223        C  0.13119379  0.94013330  0.95692210    -0.09400
C224        C  0.13128485  0.96620210  0.99188370    -0.10900
C225        C  0.16388315  0.82700218  0.82314373    -0.09400
C226        C  0.18605217  0.80094856  0.79947326    -0.10900
C227        C  0.86782672  0.93987277  0.95782012    -0.09400
C228        C  0.86791360  0.96594711  0.99278055    -0.10900
C229        C  0.98045788  0.87065841  0.86153497    -0.09400
C230        C  0.01816962  0.87069209  0.86141615    -0.10900
C231        C  0.81242215  0.80080623  0.80043078    -0.09400
C232        C  0.83462021  0.82686073  0.82406566    -0.10900
C233        C  0.68610655  0.60432440  0.65104699    -0.09400
C234        C  0.66391063  0.57830903  0.62737007    -0.10900
C235        C  0.48044471  0.53471931  0.58908320    -0.09400
C236        C  0.51815669  0.53471284  0.58917992    -0.10900
C237        C  0.33455937  0.57833896  0.62654449    -0.09400
C238        C  0.31233639  0.60437728  0.65016625    -0.10900
C239        C  0.63120090  0.43927352  0.45853651    -0.09400
C240        C  0.63110971  0.46533386  0.49350416    -0.10900
C241        C  0.66455227  0.32651310  0.32463259    -0.09400
C242        C  0.68679253  0.30056977  0.30092559    -0.10900
C243        C  0.36787991  0.46540231  0.49277844    -0.09400
C244        C  0.36796460  0.43934501  0.45780657    -0.10900
C245        C  0.51864565  0.36993981  0.36224743    -0.09400
C246        C  0.48093440  0.36995994  0.36215631    -0.10900
C247        C  0.33519446  0.32654972  0.32375079    -0.09400
C248        C  0.31303226  0.30059283  0.29996589    -0.10900
C249        C  0.33525541  0.07837102  0.32323531    -0.09400
C250        C  0.31307357  0.10439503  0.29954674    -0.10900
C251        C  0.51870263  0.03472647  0.36158459    -0.09400
C252        C  0.48099093  0.03473881  0.36148513    -0.10900
C253        C  0.68681334  0.10436124  0.30051064    -0.09400
C254        C  0.66458898  0.07832015  0.32412460    -0.10900
C255        C  0.63120009  0.93911407  0.49267810    -0.09400
C256        C  0.63127951  0.96521471  0.45773968    -0.10900
C257        C  0.68613657  0.80046956  0.65061149    -0.09400
C258        C  0.66395816  0.82638173  0.62679461    -0.10900
C259        C  0.36800694  0.96532148  0.45707204    -0.09400
C260        C  0.36792252  0.93922929  0.49201709    -0.10900
C261        C  0.51821050  0.86967709  0.58824054    -0.09400
C262        C  0.48049941  0.86969565  0.58815041    -0.10900
C263        C  0.33458897  0.82649895  0.62595806    -0.09400
C264        C  0.31235557  0.80057856  0.64969710    -0.10900
loop_ 
_geom_bond_atom_site_label_1 
_geom_bond_atom_site_label_2 
_geom_bond_distance 
_geom_bond_site_symmetry_2 
_ccdc_geom_bond_type 
C1            C2   1.407       .  A
C1            C6   1.404       .  A
C1          C263   1.441       .  S
C2            C3   1.403       .  A
C2            H7   1.084       .  S
C3            C4   1.399       .  A
C3          C260   1.441       .  S
C4            C5   1.397       .  A
C4            H8   1.086       .  S
C5            C6   1.399       .  A
C5          C262   1.440       .  S
C6            H9   1.084       .  S
C10          C11   1.407       .  A
C10          C15   1.404       .  A
C10         C258   1.441       .  S
C11          C12   1.403       .  A
C11          H16   1.084       .  S
C12          C13   1.399       .  A
C12         C255   1.441       .  S
C13          C14   1.397       .  A
C13          H17   1.086       .  S
C14          C15   1.399       .  A
C14         C261   1.440       .  S
C15          H18   1.084       .  S
C19          C20   1.404       .  A
C19          C24   1.407       .  A
C19         C254   1.441       .  S
C20          C21   1.399       .  A
C20          H25   1.084       .  S
C21          C22   1.397   1_545  A
C21         C251   1.440       .  S
C22          C23   1.399       .  A
C22          H26   1.086       .  S
C23          C24   1.403   1_565  A
C23         C256   1.441       .  S
C24          H27   1.084       .  S
C28          C29   1.404       .  A
C28          C33   1.407       .  A
C28         C249   1.441       .  S
C29          C30   1.399       .  A
C29          H34   1.084       .  S
C30          C31   1.397       .  A
C30         C252   1.440       .  S
C31          C32   1.399   1_545  A
C31          H35   1.086   1_545  S
C32          C33   1.403   1_565  A
C32         C259   1.441       .  S
C33          H36   1.084       .  S
C37          C38   1.407       .  A
C37          C42   1.404       .  A
C37         C247   1.441       .  S
C38          C39   1.403       .  A
C38          H43   1.084       .  S
C39          C40   1.399       .  A
C39         C244   1.441       .  S
C40          C41   1.397       .  A
C40          H44   1.086       .  S
C41          C42   1.399       .  A
C41         C246   1.440       .  S
C42          H45   1.084       .  S
C46          C47   1.407       .  A
C46          C51   1.405       .  A
C46         C241   1.441       .  S
C47          C48   1.403       .  A
C47          H52   1.084       .  S
C48          C49   1.399       .  A
C48         C239   1.441       .  S
C49          C50   1.397       .  A
C49          H53   1.086       .  S
C50          C51   1.399       .  A
C50         C245   1.440       .  S
C51          H54   1.084       .  S
C55          C56   1.407       .  A
C55          C60   1.404       .  A
C55         C237   1.441       .  S
C56          C57   1.403       .  A
C56          H61   1.084       .  S
C57          C58   1.399       .  A
C57         C243   1.441       .  S
C58          C59   1.397       .  A
C58          H62   1.086       .  S
C59          C60   1.399       .  A
C59         C235   1.440       .  S
C60          H63   1.084       .  S
C64          C65   1.407       .  A
C64          C69   1.404       .  A
C64         C234   1.441       .  S
C65          C66   1.403       .  A
C65          H70   1.084       .  S
C66          C67   1.399       .  A
C66         C240   1.441       .  S
C67          C68   1.397       .  A
C67          H71   1.086       .  S
C68          C69   1.399       .  A
C68         C236   1.440       .  S
C69          H72   1.084       .  S
C73          C74   1.404       .  A
C73          C78   1.407       .  A
C73         C232   1.441       .  S
C74          C75   1.399       .  A
C74          H79   1.084       .  S
C75          C76   1.397       .  A
C75         C229   1.440       .  S
C76          C77   1.399       .  A
C76          H80   1.086       .  S
C77          C78   1.403       .  A
C77         C227   1.441       .  S
C78          H81   1.084       .  S
C82          C83   1.404       .  A
C82          C87   1.407       .  A
C82         C225   1.441       .  S
C83          C84   1.399       .  A
C83          H88   1.084       .  S
C84          C85   1.397       .  A
C84         C230   1.440       .  S
C85          C86   1.399       .  A
C85          H89   1.086       .  S
C86          C87   1.403       .  A
C86         C223   1.441       .  S
C87          H90   1.084       .  S
C91          C92   1.407       .  A
C91          C96   1.404       .  A
C91         C222   1.441       .  S
C92          C93   1.403   1_545  A
C92          H97   1.084       .  S
C93          C94   1.399   1_565  A
C93         C228   1.441   1_554  S
C94          C95   1.397       .  A
C94          H98   1.086   1_545  S
C95          C96   1.399       .  A
C95         C219   1.440       .  S
C96          H99   1.084       .  S
C100        C101   1.407       .  A
C100        C105   1.405       .  A
C100        C218   1.441       .  S
C101        C102   1.403   1_545  A
C101        H106   1.084       .  S
C102        C103   1.399   1_565  A
C102        C224   1.441   1_554  S
C103        C104   1.397       .  A
C103        H107   1.086   1_545  S
C104        C105   1.399       .  A
C104        C220   1.440       .  S
C105        H108   1.084       .  S
C109        C110   1.404       .  A
C109        C114   1.407       .  A
C109        C215   1.441       .  S
C110        C111   1.399       .  A
C110        H115   1.084       .  S
C111        C112   1.397       .  A
C111        C214   1.440       .  S
C112        C113   1.399       .  A
C112        H116   1.086       .  S
C113        C114   1.403       .  A
C113        C211   1.441       .  S
C114        H117   1.084       .  S
C118        C119   1.407       .  A
C118        C123   1.404       .  A
C118        C210   1.441       .  S
C119        C120   1.403       .  A
C119        H124   1.084       .  S
C120        C121   1.399       .  A
C120        C207   1.441       .  S
C121        C122   1.397       .  A
C121        H125   1.086       .  S
C122        C123   1.399       .  A
C122        C213   1.440       .  S
C123        H126   1.084       .  S
C127        C128   1.407       .  A
C127        C132   1.404       .  A
C127        C205   1.441       .  S
C128        C129   1.403       .  A
C128        H133   1.084       .  S
C129        C130   1.399       .  A
C129        C212   1.441   1_554  S
C130        C131   1.397       .  A
C130        H134   1.086       .  S
C131        C132   1.399       .  A
C131        C203   1.440       .  S
C132        H135   1.084       .  S
C136        C137   1.407       .  A
C136        C141   1.404       .  A
C136        C202   1.441       .  S
C137        C138   1.403       .  A
C137        H142   1.084       .  S
C138        C139   1.399       .  A
C138        C208   1.441   1_554  S
C139        C140   1.397       .  A
C139        H143   1.086       .  S
C140        C141   1.399       .  A
C140        C204   1.440       .  S
C141        H144   1.084       .  S
O145        V153   1.901       .  S
O145        C155   1.263       .  A
O146        V153   1.901       .  S
O146        C156   1.263       .  A
O147        V153   1.901       .  S
O147        C157   1.263       .  A
O148        V153   1.900       .  S
O148        C158   1.263       .  A
O149        V154   1.901       .  S
O149        C158   1.263       .  A
O150        V154   1.900       .  S
O150        C157   1.263       .  A
O151        V154   1.900       .  S
O151        C156   1.263       .  A
O152        V154   1.901       .  S
O152        C155   1.263       .  A
V153        V154   2.091       .  T
C155        C209   1.436       .  S
C156        C264   1.436       .  S
C157        C238   1.436       .  S
C158        C226   1.436       .  S
O159        V167   1.901       .  S
O159        C169   1.263       .  A
O160        V167   1.901       .  S
O160        C170   1.263       .  A
O161        V167   1.901       .  S
O161        C171   1.263       .  A
O162        V167   1.900       .  S
O162        C172   1.263       .  A
O163        V168   1.901       .  S
O163        C172   1.263       .  A
O164        V168   1.901       .  S
O164        C171   1.263       .  A
O165        V168   1.900       .  S
O165        C170   1.263       .  A
O166        V168   1.901       .  S
O166        C169   1.263       .  A
V167        V168   2.091       .  T
C169        C231   1.436       .  S
C170        C233   1.436       .  S
C171        C257   1.436       .  S
C172        C216   1.436       .  S
O173        V181   1.901       .  S
O173        C183   1.263       .  A
O174        V181   1.902       .  S
O174        C184   1.263       .  A
O175        V181   1.901       .  S
O175        C185   1.263       .  A
O176        V181   1.900       .  S
O176        C186   1.263       .  A
O177        V182   1.901       .  S
O177        C186   1.263       .  A
O178        V182   1.900       .  S
O178        C185   1.263       .  A
O179        V182   1.900       .  S
O179        C184   1.263       .  A
O180        V182   1.901       .  S
O180        C183   1.263       .  A
V181        V182   2.091       .  T
C183        C248   1.436       .  S
C184        C217   1.436       .  S
C185        C201   1.436       .  S
C186        C250   1.436       .  S
O187        V195   1.900       .  S
O187        C197   1.263       .  A
O188        V195   1.901       .  S
O188        C198   1.263       .  A
O189        V195   1.901       .  S
O189        C199   1.263       .  A
O190        V195   1.900       .  S
O190        C200   1.263       .  A
O191        V196   1.902       .  S
O191        C200   1.263       .  A
O192        V196   1.901       .  S
O192        C199   1.263       .  A
O193        V196   1.900       .  S
O193        C198   1.263       .  A
O194        V196   1.901       .  S
O194        C197   1.263       .  A
V195        V196   2.091       .  T
C197        C253   1.436       .  S
C198        C206   1.436       .  S
C199        C221   1.436       .  S
C200        C242   1.436       .  S
C201        C202   1.206       .  T
C203        C204   1.206   1_655  T
C205        C206   1.206       .  T
C207        C208   1.207       .  T
C209        C210   1.206       .  T
C211        C212   1.207       .  T
C213        C214   1.206   1_455  T
C215        C216   1.206       .  T
C217        C218   1.207       .  T
C219        C220   1.206   1_655  T
C221        C222   1.207       .  T
C223        C224   1.207       .  T
C225        C226   1.206       .  T
C227        C228   1.207       .  T
C229        C230   1.206   1_655  T
C231        C232   1.207       .  T
C233        C234   1.206       .  T
C235        C236   1.206       .  T
C237        C238   1.207       .  T
C239        C240   1.207       .  T
C241        C242   1.207       .  T
C243        C244   1.207       .  T
C245        C246   1.206       .  T
C247        C248   1.206       .  T
C249        C250   1.206       .  T
C251        C252   1.206       .  T
C253        C254   1.206       .  T
C255        C256   1.207       .  T
C257        C258   1.206       .  T
C259        C260   1.207       .  T
C261        C262   1.206       .  T
C263        C264   1.207       .  T
