geometry optimzed in LAMMPS
_audit_creation_date              2020-12-01 
_audit_creation_method            'lammps2cif' 
_symmetry_space_group_name_H-M    'P1' 
_symmetry_Int_Tables_number       1 
_symmetry_cell_setting            triclinic 
loop_ 
_symmetry_equiv_pos_as_xyz 
  x,y,z 
_cell_length_a                    31.73644054 
_cell_length_b                    27.712113670394405 
_cell_length_c                    27.23022692283388 
_cell_angle_alpha                 89.99956716466194 
_cell_angle_beta                  89.99681557634753 
_cell_angle_gamma                 89.99969431487249 
loop_ 
_atom_site_label 
_atom_site_type_symbol 
_atom_site_fract_x 
_atom_site_fract_y 
_atom_site_fract_z 
_atom_site_charge 
C1          C  0.36698071  0.85596228  0.60003706     0.83700
N2          N  0.35329298  0.88478610  0.56276072    -0.74600
C3          C  0.38172181  0.90991997  0.53551798     0.86100
N4          N  0.42340967  0.90586284  0.54535634    -0.74600
C5          C  0.43711080  0.87718753  0.58227789     0.86200
N6          N  0.40891343  0.85202741  0.60958653    -0.76300
C7          C  0.63448723  0.85580909  0.59648738     0.83700
N8          N  0.64748298  0.88453599  0.55879752    -0.74600
C9          C  0.61855510  0.90962924  0.53223739     0.86100
N10         N  0.57706085  0.90563722  0.54317159    -0.74600
C11         C  0.56405019  0.87706062  0.58051209     0.86200
N12         N  0.59274619  0.85194429  0.60713901    -0.76300
C13         C  0.63222206  0.04929367  0.35054584     0.83700
N14         N  0.59028972  0.05323416  0.34099447    -0.74600
C15         C  0.56208955  0.02807150  0.36829758     0.86100
N16         N  0.57578774  0.99938771  0.40521410    -0.74600
C17         C  0.61747502  0.99532560  0.41505400     0.86200
N18         N  0.64590610  0.02046145  0.38781698    -0.76300
C19         C  0.36471041  0.04939270  0.35405465     0.83700
N20         N  0.40645150  0.05326930  0.34340910    -0.74600
C21         C  0.43514998  0.02816452  0.37004305     0.86100
N22         N  0.42214117  0.99958809  0.40738510    -0.74600
C23         C  0.38064603  0.99558495  0.41831257     0.86200
N24         N  0.35171635  0.02066700  0.39174535    -0.76300
C25         C  0.36472116  0.35575246  0.35414464     0.83700
N26         N  0.35172278  0.38448944  0.39182503    -0.74600
C27         C  0.38065220  0.40955709  0.41840743     0.86100
N28         N  0.42215016  0.40553115  0.40750251    -0.74600
C29         C  0.43516242  0.37694402  0.37017099     0.86200
N30         N  0.40646490  0.35185398  0.34352262    -0.76300
C31         C  0.63223684  0.35587519  0.35059752     0.83700
N32         N  0.64592595  0.38472177  0.38785460    -0.74600
C33         C  0.61749574  0.40984329  0.41510716     0.86100
N34         N  0.57580591  0.40575359  0.40529640    -0.74600
C35         C  0.56210320  0.37705624  0.36839449     0.86200
N36         N  0.59030154  0.35190785  0.34107554    -0.76300
C37         C  0.36698767  0.54931469  0.60002538     0.83700
N38         N  0.35329772  0.52046008  0.56277495    -0.74600
C39         C  0.38172663  0.49532374  0.53553428     0.86100
N40         N  0.42341620  0.49940704  0.54535059    -0.74600
C41         C  0.43711957  0.52811251  0.58224604     0.86200
N42         N  0.40892239  0.55327533  0.60955259    -0.76300
C43         C  0.63450155  0.54940949  0.59649445     0.83700
N44         N  0.64749747  0.52066777  0.55881761    -0.74600
C45         C  0.61856724  0.49559324  0.53224459     0.86100
N46         N  0.57707006  0.49961803  0.54315393    -0.74600
C47         C  0.56405992  0.52821001  0.58048271     0.86200
N48         N  0.59275878  0.55330735  0.60712214    -0.76300
C49         C  0.86699279  0.85584207  0.85059629     0.83700
N50         N  0.90892814  0.85185645  0.84107712    -0.74600
C51         C  0.93712938  0.87699909  0.86839355     0.86100
N52         N  0.92342959  0.90570926  0.90528801    -0.74600
C53         C  0.88173997  0.90981608  0.91509550     0.86200
N54         N  0.85330655  0.88470118  0.88784607    -0.76300
C55         C  0.13451554  0.85576804  0.85414477     0.83700
N56         N  0.09277509  0.85184245  0.84352397    -0.74600
C57         C  0.06406457  0.87691906  0.87016949     0.86100
N58         N  0.07706122  0.90551954  0.90749664    -0.74600
C59         C  0.11855719  0.90957066  0.91839788     0.86200
N60         N  0.14749851  0.88451692  0.89181879    -0.76300
C61         C  0.86471114  0.04945352  0.09642325     0.83700
N62         N  0.85172420  0.02069905  0.05875458    -0.74600
C63         C  0.88066192  0.99562569  0.03218793     0.86100
N64         N  0.92215746  0.99966253  0.04309647    -0.74600
C65         C  0.93515770  0.02826776  0.08041788     0.86200
N66         N  0.90645145  0.05336374  0.10705053    -0.76300
C67         C  0.13222802  0.04933464  0.10000417     0.83700
N68         N  0.14591561  0.02047679  0.06275382    -0.74600
C69         C  0.11748359  0.99535463  0.03550906     0.86100
N70         N  0.07579427  0.99945426  0.04532015    -0.74600
C71         C  0.06209313  0.02816262  0.08221493     0.86200
N72         N  0.09029259  0.05331240  0.10952703    -0.76300
C73         C  0.86697653  0.54939302  0.85063910     0.83700
N74         N  0.90891386  0.55340473  0.84114624    -0.74600
C75         C  0.93711569  0.52829215  0.86848987     0.86100
N76         N  0.92341450  0.49958367  0.90538539    -0.74600
C77         C  0.88172224  0.49545008  0.91516706     0.86200
N78         N  0.85328776  0.52053576  0.88788987    -0.76300
C79         C  0.13450208  0.54955247  0.85421778     0.83700
N80         N  0.14749296  0.52078595  0.89187575    -0.74600
C81         C  0.11855527  0.49573303  0.91846233     0.86100
N82         N  0.07705675  0.49979980  0.90758275    -0.74600
C83         C  0.06405243  0.52841671  0.87027266     0.86200
N84         N  0.09275815  0.55349298  0.84361949    -0.76300
C85         C  0.86470321  0.35577613  0.09646712     0.83700
N86         N  0.85171177  0.38454901  0.05881472    -0.74600
C87         C  0.88064840  0.40961304  0.03223755     0.86100
N88         N  0.92214698  0.40554826  0.04311938    -0.74600
C89         C  0.93515163  0.37692449  0.08042439     0.86200
N90         N  0.90644650  0.35183783  0.10706780    -0.76300
C91         C  0.13222668  0.35586846  0.09998901     0.83700
N92         N  0.14591303  0.38474485  0.06275307    -0.74600
C93         C  0.11747861  0.40985968  0.03550441     0.86100
N94         N  0.07578791  0.40573632  0.04529945    -0.74600
C95         C  0.06208843  0.37700912  0.08218076     0.86200
N96         N  0.09029074  0.35186677  0.10949623    -0.76300
O97         O  0.19697197  0.65425983  0.73473697    -0.68300
O98         O  0.25666931  0.75102183  0.66421961    -0.68500
O99         O  0.25666484  0.65422842  0.66422700    -0.68400
O100        O  0.19697810  0.75100920  0.73472517    -0.68400
O101        O  0.24566018  0.75103602  0.79093421    -0.68400
O102        O  0.30536201  0.65423896  0.72041746    -0.68400
O103        O  0.30536482  0.75101520  0.72041209    -0.68300
O104        O  0.24565602  0.65423419  0.79094343    -0.68500
V105        V  0.22776470  0.70262926  0.70058242     1.35200
V106        V  0.27457213  0.70263046  0.75457462     1.35200
C107        C  0.21096023  0.63830000  0.77501960     0.80900
C108        C  0.29135783  0.76697740  0.68013511     0.81000
C109        C  0.29135510  0.63827580  0.68014089     0.80900
C110        C  0.21096882  0.76697611  0.77500277     0.80800
O111        O  0.80532734  0.75099569  0.73017250    -0.68300
O112        O  0.74561743  0.65420200  0.65966857    -0.68500
O113        O  0.74561221  0.75100984  0.65966271    -0.68400
O114        O  0.80532955  0.65422338  0.73017771    -0.68400
O115        O  0.75663705  0.65421556  0.78638008    -0.68400
O116        O  0.69693602  0.75098460  0.71588417    -0.68400
O117        O  0.69693933  0.65423011  0.71588815    -0.68300
O118        O  0.75663733  0.75100377  0.78637780    -0.68500
V119        V  0.77453243  0.70260815  0.69602168     1.35200
V120        V  0.72773036  0.70260889  0.75002596     1.35200
C121        C  0.79132818  0.76695192  0.77045710     0.80900
C122        C  0.71092830  0.63825940  0.67560882     0.81000
C123        C  0.71092105  0.76695076  0.67560070     0.80900
C124        C  0.79132755  0.63826554  0.77046093     0.80800
O125        O  0.30227602  0.25098409  0.23469064    -0.68300
O126        O  0.24256798  0.15422409  0.16418681    -0.68500
O127        O  0.24257533  0.25101461  0.16419652    -0.68400
O128        O  0.30226878  0.15422982  0.23467659    -0.68400
O129        O  0.25359387  0.15420302  0.29089989    -0.68400
O130        O  0.19388373  0.25100230  0.22039998    -0.68400
O131        O  0.19387979  0.15422921  0.22039415    -0.68300
O132        O  0.25359716  0.25100944  0.29090908    -0.68500
V133        V  0.27147909  0.20261357  0.20054373     1.35200
V134        V  0.22467779  0.20261152  0.25454893     1.35200
C135        C  0.28828982  0.26694772  0.27497486     0.80900
C136        C  0.20787915  0.13827183  0.18011015     0.81000
C137        C  0.20788527  0.26696363  0.18011832     0.80900
C138        C  0.28828178  0.13825892  0.27495680     0.80800
O139        O  0.69387151  0.15420906  0.23016657    -0.68300
O140        O  0.75357790  0.25101055  0.15966328    -0.68500
O141        O  0.75357930  0.15420611  0.15964508    -0.68400
O142        O  0.69387132  0.25098309  0.23018364    -0.68400
O143        O  0.74256633  0.25098304  0.28637664    -0.68400
O144        O  0.80226004  0.15422097  0.21585540    -0.68400
O145        O  0.80226020  0.25097331  0.21587191    -0.68300
O146        O  0.74256480  0.15419116  0.28636167    -0.68500
V147        V  0.72466423  0.20260168  0.19601640     1.35200
V148        V  0.77146985  0.20259198  0.25001065     1.35200
C149        C  0.70787418  0.13824345  0.27044405     0.80900
C150        C  0.78826885  0.26694843  0.17559723     0.81000
C151        C  0.78827082  0.13826275  0.17557290     0.80900
C152        C  0.70787638  0.26693829  0.27046415     0.80800
C153        C  0.18397123  0.30142113  0.15213660    -0.09800
C154        C  0.16166465  0.32773984  0.12818558    -0.11400
C155        C  0.97953095  0.37228853  0.08966920    -0.09800
C156        C  0.01754122  0.37230265  0.09021182    -0.08200
C157        C  0.83477208  0.32771531  0.12401644    -0.09800
C158        C  0.81222360  0.30140949  0.14767104    -0.11400
C159        C  0.13046496  0.46583977  0.95937035    -0.09800
C160        C  0.13014131  0.43981718  0.99495332    -0.11400
C161        C  0.18699393  0.60386662  0.80296943    -0.09800
C162        C  0.16443706  0.57758866  0.82664634    -0.11400
C163        C  0.86905845  0.46551086  0.95573224    -0.09800
C164        C  0.86873803  0.43950069  0.99132494    -0.11400
C165        C  0.01967337  0.53304203  0.86102185    -0.09800
C166        C  0.98166335  0.53301259  0.86047222    -0.11400
C167        C  0.83754106  0.57750043  0.82241670    -0.09800
C168        C  0.81524026  0.60381148  0.79844924    -0.11400
C169        C  0.18396622  0.10380956  0.15213220    -0.09800
C170        C  0.16166210  0.07747918  0.12819085    -0.11400
C171        C  0.97953507  0.03287968  0.08968866    -0.09800
C172        C  0.01754520  0.03285972  0.09024668    -0.11400
C173        C  0.81222863  0.10381483  0.14763185    -0.09800
C174        C  0.83477876  0.07751611  0.12397025    -0.11400
C175        C  0.13046146  0.93943446  0.95932969    -0.09800
C176        C  0.13014374  0.96542814  0.99493398    -0.11400
C177        C  0.16445329  0.82772033  0.82659287    -0.09800
C178        C  0.18701014  0.80142693  0.80293573    -0.11400
C179        C  0.86907874  0.93975145  0.95566404    -0.09800
C180        C  0.86875648  0.96575408  0.99126190    -0.11400
C181        C  0.98167687  0.87230361  0.86035663    -0.09800
C182        C  0.01968718  0.87229167  0.86090644    -0.11400
C183        C  0.81524628  0.80140192  0.79844334    -0.09800
C184        C  0.83755539  0.82771518  0.82239710    -0.11400
C185        C  0.68697310  0.60379624  0.64768623    -0.09800
C186        C  0.66442623  0.57748414  0.62403807    -0.11400
C187        C  0.48166786  0.53279538  0.59028618    -0.09800
C188        C  0.51967880  0.53281572  0.58974389    -0.11400
C189        C  0.33755792  0.57747015  0.62821213    -0.09800
C190        C  0.31526092  0.60380713  0.65215868    -0.11400
C191        C  0.63015887  0.43975796  0.45569054    -0.09800
C192        C  0.63048014  0.46574194  0.49130330    -0.11400
C193        C  0.66166849  0.32773115  0.32240182    -0.09800
C194        C  0.68396848  0.30140094  0.29845140    -0.11400
C195        C  0.36906231  0.46540055  0.49495668    -0.09800
C196        C  0.36873812  0.43941064  0.45934769    -0.11400
C197        C  0.51755463  0.37236697  0.36036069    -0.09800
C198        C  0.47954378  0.37234259  0.36090895    -0.11400
C199        C  0.33479764  0.32769193  0.32658158    -0.09800
C200        C  0.31225172  0.30139497  0.30291299    -0.11400
C201        C  0.33478635  0.07747661  0.32651842    -0.09800
C202        C  0.31223808  0.10379317  0.30287618    -0.11400
C203        C  0.51754226  0.03273983  0.36023747    -0.09800
C204        C  0.47953100  0.03275895  0.36077351    -0.11400
C205        C  0.68396144  0.10377934  0.29842306    -0.09800
C206        C  0.66165591  0.07744736  0.32236398    -0.11400
C207        C  0.63046398  0.93946097  0.49127901    -0.09800
C208        C  0.63013542  0.96542907  0.45565367    -0.11400
C209        C  0.68695931  0.80140764  0.64767211    -0.09800
C210        C  0.66441004  0.82772030  0.62402431    -0.11400
C211        C  0.36873660  0.96575990  0.45927538    -0.09800
C212        C  0.36906038  0.93980267  0.49490874    -0.11400
C213        C  0.51966939  0.87248256  0.58978950    -0.09800
C214        C  0.48165835  0.87251480  0.59033078    -0.11400
C215        C  0.33755320  0.82779931  0.62821812    -0.09800
C216        C  0.31525966  0.80145279  0.65215761    -0.11400
loop_ 
_geom_bond_atom_site_label_1 
_geom_bond_atom_site_label_2 
_geom_bond_distance 
_geom_bond_site_symmetry_2 
_ccdc_geom_bond_type 
C1            N2   1.363       .  A
C1            N6   1.360       .  A
C1          C215   1.439       .  S
N2            C3   1.360       .  A
C3            N4   1.355       .  A
C3          C212   1.439       .  S
N4            C5   1.353       .  A
C5            N6   1.356       .  A
C5          C214   1.437       .  S
C7            N8   1.363       .  A
C7           N12   1.360       .  A
C7          C210   1.439       .  S
N8            C9   1.360       .  A
C9           N10   1.355       .  A
C9          C207   1.439       .  S
N10          C11   1.353       .  A
C11          N12   1.356       .  A
C11         C213   1.437       .  S
C13          N14   1.360       .  A
C13          N18   1.363       .  A
C13         C206   1.439       .  S
N14          C15   1.356       .  A
C15          N16   1.353   1_545  A
C15         C203   1.437       .  S
N16          C17   1.355       .  A
C17          N18   1.360   1_565  A
C17         C208   1.439       .  S
C19          N20   1.360       .  A
C19          N24   1.363       .  A
C19         C201   1.439       .  S
N20          C21   1.356       .  A
C21          N22   1.353   1_545  A
C21         C204   1.437       .  S
N22          C23   1.355       .  A
C23          N24   1.360   1_565  A
C23         C211   1.439       .  S
C25          N26   1.363       .  A
C25          N30   1.360       .  A
C25         C199   1.439       .  S
N26          C27   1.360       .  A
C27          N28   1.355       .  A
C27         C196   1.439       .  S
N28          C29   1.353       .  A
C29          N30   1.356       .  A
C29         C198   1.437       .  S
C31          N32   1.363       .  A
C31          N36   1.360       .  A
C31         C193   1.439       .  S
N32          C33   1.360       .  A
C33          N34   1.355       .  A
C33         C191   1.439       .  S
N34          C35   1.353       .  A
C35          N36   1.356       .  A
C35         C197   1.437       .  S
C37          N38   1.363       .  A
C37          N42   1.360       .  A
C37         C189   1.439       .  S
N38          C39   1.360       .  A
C39          N40   1.355       .  A
C39         C195   1.439       .  S
N40          C41   1.353       .  A
C41          N42   1.356       .  A
C41         C187   1.437       .  S
C43          N44   1.363       .  A
C43          N48   1.360       .  A
C43         C186   1.439       .  S
N44          C45   1.360       .  A
C45          N46   1.355       .  A
C45         C192   1.439       .  S
N46          C47   1.353       .  A
C47          N48   1.356       .  A
C47         C188   1.437       .  S
C49          N50   1.360       .  A
C49          N54   1.363       .  A
C49         C184   1.439       .  S
N50          C51   1.356       .  A
C51          N52   1.353       .  A
C51         C181   1.437       .  S
N52          C53   1.355       .  A
C53          N54   1.360       .  A
C53         C179   1.439       .  S
C55          N56   1.360       .  A
C55          N60   1.363       .  A
C55         C177   1.439       .  S
N56          C57   1.356       .  A
C57          N58   1.353       .  A
C57         C182   1.437       .  S
N58          C59   1.355       .  A
C59          N60   1.360       .  A
C59         C175   1.439       .  S
C61          N62   1.363       .  A
C61          N66   1.360       .  A
C61         C174   1.439       .  S
N62          C63   1.360   1_545  A
C63          N64   1.355       .  A
C63         C180   1.439   1_554  S
N64          C65   1.353   1_565  A
C65          N66   1.356       .  A
C65         C171   1.437       .  S
C67          N68   1.363       .  A
C67          N72   1.360       .  A
C67         C170   1.439       .  S
N68          C69   1.360   1_545  A
C69          N70   1.355       .  A
C69         C176   1.439   1_554  S
N70          C71   1.353   1_565  A
C71          N72   1.356       .  A
C71         C172   1.437       .  S
C73          N74   1.360       .  A
C73          N78   1.363       .  A
C73         C167   1.439       .  S
N74          C75   1.356       .  A
C75          N76   1.353       .  A
C75         C166   1.436       .  S
N76          C77   1.355       .  A
C77          N78   1.360       .  A
C77         C163   1.439       .  S
C79          N80   1.363       .  A
C79          N84   1.360       .  A
C79         C162   1.439       .  S
N80          C81   1.360       .  A
C81          N82   1.355       .  A
C81         C159   1.439       .  S
N82          C83   1.353       .  A
C83          N84   1.356       .  A
C83         C165   1.437       .  S
C85          N86   1.363       .  A
C85          N90   1.360       .  A
C85         C157   1.439       .  S
N86          C87   1.360       .  A
C87          N88   1.355       .  A
C87         C164   1.439   1_554  S
N88          C89   1.353       .  A
C89          N90   1.356       .  A
C89         C155   1.437       .  S
C91          N92   1.363       .  A
C91          N96   1.360       .  A
C91         C154   1.439       .  S
N92          C93   1.360       .  A
C93          N94   1.355       .  A
C93         C160   1.439   1_554  S
N94          C95   1.353       .  A
C95          N96   1.356       .  A
C95         C156   1.437       .  S
O97         V105   1.902       .  S
O97         C107   1.263       .  A
O98         V105   1.903       .  S
O98         C108   1.263       .  A
O99         V105   1.903       .  S
O99         C109   1.263       .  A
O100        V105   1.902       .  S
O100        C110   1.263       .  A
O101        V106   1.903       .  S
O101        C110   1.263       .  A
O102        V106   1.902       .  S
O102        C109   1.263       .  A
O103        V106   1.902       .  S
O103        C108   1.263       .  A
O104        V106   1.903       .  S
O104        C107   1.263       .  A
V105        V106   2.090       .  T
C107        C161   1.438       .  S
C108        C216   1.438       .  S
C109        C190   1.438       .  S
C110        C178   1.438       .  S
O111        V119   1.902       .  S
O111        C121   1.263       .  A
O112        V119   1.903       .  S
O112        C122   1.263       .  A
O113        V119   1.903       .  S
O113        C123   1.263       .  A
O114        V119   1.902       .  S
O114        C124   1.263       .  A
O115        V120   1.903       .  S
O115        C124   1.263       .  A
O116        V120   1.902       .  S
O116        C123   1.263       .  A
O117        V120   1.902       .  S
O117        C122   1.263       .  A
O118        V120   1.903       .  S
O118        C121   1.263       .  A
V119        V120   2.090       .  T
C121        C183   1.438       .  S
C122        C185   1.438       .  S
C123        C209   1.438       .  S
C124        C168   1.438       .  S
O125        V133   1.902       .  S
O125        C135   1.263       .  A
O126        V133   1.903       .  S
O126        C136   1.263       .  A
O127        V133   1.903       .  S
O127        C137   1.263       .  A
O128        V133   1.902       .  S
O128        C138   1.263       .  A
O129        V134   1.903       .  S
O129        C138   1.263       .  A
O130        V134   1.902       .  S
O130        C137   1.263       .  A
O131        V134   1.902       .  S
O131        C136   1.263       .  A
O132        V134   1.903       .  S
O132        C135   1.263       .  A
V133        V134   2.090       .  T
C135        C200   1.438       .  S
C136        C169   1.438       .  S
C137        C153   1.438       .  S
C138        C202   1.438       .  S
O139        V147   1.902       .  S
O139        C149   1.263       .  A
O140        V147   1.903       .  S
O140        C150   1.263       .  A
O141        V147   1.903       .  S
O141        C151   1.263       .  A
O142        V147   1.902       .  S
O142        C152   1.263       .  A
O143        V148   1.903       .  S
O143        C152   1.263       .  A
O144        V148   1.902       .  S
O144        C151   1.263       .  A
O145        V148   1.902       .  S
O145        C150   1.263       .  A
O146        V148   1.903       .  S
O146        C149   1.263       .  A
V147        V148   2.090       .  T
C149        C205   1.438       .  S
C150        C158   1.438       .  S
C151        C173   1.438       .  S
C152        C194   1.438       .  S
C153        C154   1.208       .  T
C155        C156   1.206   1_655  T
C157        C158   1.208       .  T
C159        C160   1.208       .  T
C161        C162   1.208       .  T
C163        C164   1.208       .  T
C165        C166   1.206   1_455  T
C167        C168   1.208       .  T
C169        C170   1.208       .  T
C171        C172   1.206   1_655  T
C173        C174   1.208       .  T
C175        C176   1.208       .  T
C177        C178   1.208       .  T
C179        C180   1.208       .  T
C181        C182   1.206   1_655  T
C183        C184   1.208       .  T
C185        C186   1.208       .  T
C187        C188   1.206       .  T
C189        C190   1.208       .  T
C191        C192   1.208       .  T
C193        C194   1.208       .  T
C195        C196   1.208       .  T
C197        C198   1.206       .  T
C199        C200   1.208       .  T
C201        C202   1.208       .  T
C203        C204   1.206       .  T
C205        C206   1.208       .  T
C207        C208   1.208       .  T
C209        C210   1.208       .  T
C211        C212   1.208       .  T
C213        C214   1.206       .  T
C215        C216   1.208       .  T
