geometry optimzed in LAMMPS
_audit_creation_date              2020-11-30 
_audit_creation_method            'lammps2cif' 
_symmetry_space_group_name_H-M    'P1' 
_symmetry_Int_Tables_number       1 
_symmetry_cell_setting            triclinic 
loop_ 
_symmetry_equiv_pos_as_xyz 
  x,y,z 
_cell_length_a                    25.75709937347295 
_cell_length_b                    44.49723871029488 
_cell_length_c                    18.49323613637022 
_cell_angle_alpha                 87.62909229030737 
_cell_angle_beta                  92.28385699457567 
_cell_angle_gamma                 90.02608401891823 
loop_ 
_atom_site_label 
_atom_site_type_symbol 
_atom_site_fract_x 
_atom_site_fract_y 
_atom_site_fract_z 
_atom_site_charge 
N1          N  0.24415044  0.38021281  0.24969316    -0.24580
N2          N  0.19742022  0.36792770  0.24887376    -0.32440
C3          C  0.16142365  0.38970784  0.24914480     0.03760
C4          C  0.18674253  0.41694481  0.25017304     0.09780
C5          C  0.23916630  0.41034466  0.25050017    -0.03320
H6          H  0.11991385  0.38593409  0.24864785     0.10450
H7          H  0.27115815  0.42611037  0.25126050     0.11650
Cu8        Cu  0.18437023  0.32220840  0.24765541     0.44170
Cu9        Cu  0.31112662  0.35444587  0.24965826     0.41990
Cu10       Cu  0.29354577  0.27195376  0.24808080     0.43880
N11         N  0.17715751  0.27601987  0.24778434    -0.31970
N12         N  0.21690663  0.25721167  0.24804929    -0.26220
C13         C  0.19862762  0.22880658  0.24891710    -0.02320
C14         C  0.14501103  0.23016071  0.24918152     0.09890
C15         C  0.13268346  0.26027591  0.24845773     0.03690
H16         H  0.22252862  0.20879809  0.24966624     0.11340
H17         H  0.09426206  0.27008145  0.24880807     0.10420
N18         N  0.36501916  0.29375415  0.24871355    -0.33420
N19         N  0.37097693  0.32332493  0.24932122    -0.25600
C20         C  0.42192346  0.32983531  0.24974051    -0.00840
C21         C  0.44910293  0.30321071  0.24938309     0.07770
C22         C  0.41221211  0.28073221  0.24873290     0.05870
H23         H  0.43789768  0.35232812  0.25030749     0.10970
H24         H  0.41902008  0.25674438  0.24836052     0.09810
N25         N  0.24589015  0.68840121  0.25110664    -0.24580
N26         N  0.19909337  0.70061700  0.24961995    -0.32440
C27         C  0.16317401  0.67878298  0.24995919     0.03760
C28         C  0.18860925  0.65156320  0.25171223     0.09780
C29         C  0.24102671  0.65822765  0.25239989    -0.03320
H30         H  0.12163726  0.68251500  0.24877302     0.10450
H31         H  0.27307767  0.64248444  0.25357354     0.11650
Cu32       Cu  0.18581379  0.74627864  0.24648579     0.44170
Cu33       Cu  0.31266784  0.71439872  0.25091407     0.41990
Cu34       Cu  0.29441833  0.79697302  0.24588051     0.43880
N35         N  0.17802696  0.79237362  0.24286423    -0.32010
N36         N  0.21751298  0.81137337  0.24279293    -0.26220
C37         C  0.19875281  0.83967622  0.24128081    -0.02320
C38         C  0.14512608  0.83801950  0.24013886     0.09890
C39         C  0.13326947  0.80786196  0.24134108     0.03690
H40         H  0.22233015  0.85980368  0.24179289     0.11340
H41         H  0.09499863  0.79783551  0.24197956     0.10420
N42         N  0.36610549  0.77532750  0.24853404    -0.33420
N43         N  0.37228288  0.74573839  0.25027641    -0.25600
C44         C  0.42328815  0.73934751  0.25124858    -0.00840
C45         C  0.45029143  0.76606317  0.25007970     0.07770
C46         C  0.41321786  0.78847640  0.24835938     0.05870
H47         H  0.43942022  0.71687042  0.25250665     0.10970
H48         H  0.41984461  0.81250671  0.24686653     0.09810
N49         N  0.81380986  0.69054185  0.24973388    -0.24580
N50         N  0.86049009  0.70283779  0.24790433    -0.32440
C51         C  0.89639839  0.68095621  0.24809798     0.03760
C52         C  0.87103409  0.65368013  0.25012314     0.09780
C53         C  0.81871740  0.66037272  0.25112431    -0.03320
H54         H  0.93787049  0.68467649  0.24684358     0.10450
H55         H  0.78671123  0.64463155  0.25269555     0.11650
Cu56       Cu  0.87337059  0.74877796  0.24540774     0.44170
Cu57       Cu  0.74675408  0.71617655  0.25006318     0.41990
Cu58       Cu  0.76320970  0.79863906  0.24568320     0.43880
N59         N  0.87977900  0.79517690  0.24478553    -0.31970
N60         N  0.83971318  0.81375624  0.24502555    -0.26220
C61         C  0.85753675  0.84225623  0.24593074    -0.02320
C62         C  0.91120843  0.84126625  0.24623721     0.09890
C63         C  0.92400010  0.81121179  0.24549164     0.03690
H64         H  0.83330358  0.86207665  0.24694481     0.11340
H65         H  0.96263064  0.80163220  0.24613193     0.10420
N66         N  0.69191825  0.77659231  0.24770894    -0.33420
N67         N  0.68641729  0.74696787  0.24941974    -0.25600
C68         C  0.63561252  0.74019010  0.25048260    -0.00840
C69         C  0.60800346  0.76670007  0.24939604     0.07770
C70         C  0.64452640  0.78939126  0.24763354     0.05870
H71         H  0.62002372  0.71759203  0.25185785     0.10970
H72         H  0.63732835  0.81336806  0.24635926     0.09810
O73         O  0.08401239  0.50148626  0.31126697    -0.70240
O74         O  0.97493916  0.56586123  0.31132781    -0.71220
O75         O  0.97413853  0.50187660  0.31082439    -0.59840
O76         O  0.08482386  0.56529319  0.31179084    -0.68250
O77         O  0.08157518  0.56754182  0.19135671    -0.67800
O78         O  0.97089311  0.50411927  0.19039955    -0.59050
O79         O  0.97171774  0.56808424  0.19091156    -0.71560
O80         O  0.08077525  0.50372865  0.19083977    -0.70340
Cu81       Cu  0.02955487  0.53354842  0.31555938     1.04560
Cu82       Cu  0.02609152  0.53594627  0.18662130     1.04330
C83         C  0.09916160  0.49240970  0.25102537     0.95960
C84         C  0.95678340  0.57730875  0.25113302     0.95100
C85         C  0.95568988  0.49282077  0.25047259     0.87250
C86         C  0.10021882  0.57647252  0.25171629     0.93520
N87         N  0.81173461  0.38007789  0.25030678    -0.24580
N88         N  0.85853347  0.36790192  0.25073201    -0.32440
C89         C  0.89438118  0.38980187  0.25062531     0.03760
C90         C  0.86885723  0.41699880  0.25010633     0.09780
C91         C  0.81649937  0.41024165  0.24991934    -0.03320
H92         H  0.93591512  0.38613924  0.25097067     0.10450
H93         H  0.78439737  0.42592597  0.24959666     0.11650
Cu94       Cu  0.87164847  0.32215313  0.25156920     0.44170
Cu95       Cu  0.74494262  0.35414514  0.25043171     0.41990
Cu96       Cu  0.76232274  0.27167256  0.25241580     0.43880
N97         N  0.87874453  0.27595156  0.25231695    -0.31970
N98         N  0.83903878  0.25709591  0.25267547    -0.26220
C99         C  0.85740611  0.22871992  0.25306924    -0.02320
C100        C  0.91101499  0.23014999  0.25290213     0.09890
C101        C  0.92326236  0.26026527  0.25246120     0.03690
H102        H  0.83357841  0.20868573  0.25344471     0.11340
H103        H  0.96167621  0.27011825  0.25227296     0.10420
N104        N  0.69085035  0.29346815  0.25148358    -0.33420
N105        N  0.68500547  0.32306383  0.25073207    -0.25600
C106        C  0.63409222  0.32964070  0.25014841    -0.00840
C107        C  0.60679720  0.30303440  0.25054779     0.07770
C108        C  0.64359535  0.28048930  0.25139707     0.05870
H109        H  0.61821938  0.35217033  0.24946085     0.10970
H110        H  0.63668307  0.25649352  0.25187733     0.09810
C111        C  0.02807052  0.16757178  0.25547703     0.00220
C112        C  0.03107302  0.90161114  0.25418655     0.00220
C113        C  0.01581379  0.13021260  0.44591918     0.05840
C114        C  0.02873523  0.14529161  0.50856853    -0.10310
C115        C  0.04035063  0.13000976  0.07281051     0.03340
C116        C  0.03949566  0.09841670  0.07580830    -0.08840
C117        C  0.02772547  0.08229983  0.51229648     0.05830
C118        C  0.01592183  0.09866898  0.44726833    -0.08260
H119        H  0.02910191  0.16970149  0.50710391     0.11420
H120        H  0.04901574  0.08610324  0.12640404     0.08950
H121        H  0.00619289  0.08699605  0.39823230     0.08800
C122        C  0.02823771  0.94031614  0.05871160     0.05840
C123        C  0.02595033  0.97174306  0.06536835    -0.10310
C124        C  0.03099014  0.99123951  0.00449816     0.03340
C125        C  0.01535453  0.97896111  0.43528673    -0.08840
C126        C  0.01508151  0.94783177  0.42694894     0.05830
C127        C  0.03377729  0.92896400  0.98926044    -0.08260
H128        H  0.02008655  0.98134748  0.11716882     0.11420
H129        H  0.01071766  0.99410094  0.38797930     0.08950
H130        H  0.03556036  0.90486746  0.98317573     0.08800
C131        C  0.02675149  0.04988381  0.51355824    -0.10560
C132        C  0.02520219  0.02282731  0.51101692    -0.12120
C133        C  0.00712272  0.93604332  0.35329072    -0.13720
C134        C  0.03827289  0.91476514  0.32877956    -0.28900
H135        H  0.97703695  0.94613064  0.31726929     0.15300
H136        H  0.07016990  0.90648898  0.36461190     0.15870
C137        C  0.03086282  0.92559872  0.19271311    -0.13720
C138        C  0.02543736  0.91848631  0.12220116    -0.28900
H139        H  0.03698655  0.94875778  0.20685760     0.15300
H140        H  0.02081298  0.89487701  0.11037627     0.15870
C141        C  0.03401791  0.14740040  0.32301779    -0.13720
C142        C  0.00308027  0.14815662  0.37949793    -0.28900
H143        H  0.06672880  0.13184054  0.32622855     0.15300
H144        H  0.97209903  0.16459348  0.38111125     0.15870
C145        C  0.02191883  0.14734559  0.19206023    -0.13720
C146        C  0.05378051  0.14727765  0.13653574    -0.28900
H147        H  0.98838908  0.13242959  0.19113244     0.15300
H148        H  0.08598368  0.16291291  0.13277860     0.15870
C149        C  0.94759081  0.20578258  0.25339464    -0.10560
C150        C  0.98219123  0.18748334  0.25425734    -0.12120
C151        C  0.91908274  0.46855786  0.25016733    -0.10560
C152        C  0.89310797  0.44603873  0.25005222    -0.12120
C153        C  0.94745518  0.86588186  0.24887854    -0.10560
C154        C  0.98273219  0.88377228  0.25137344    -0.12120
C155        C  0.89527025  0.62460178  0.25083530    -0.10560
C156        C  0.92083181  0.60191132  0.25113721    -0.12120
C157        C  0.50573097  0.76934887  0.24994717    -0.10560
C158        C  0.55250253  0.76954910  0.24972903    -0.12120
C159        C  0.07446586  0.88066935  0.24544260    -0.10560
C160        C  0.10836886  0.86219377  0.24159256    -0.12120
C161        C  0.16408146  0.62262752  0.25206801    -0.10560
C162        C  0.13746083  0.60037922  0.25202893    -0.12120
C163        C  0.50455284  0.30005629  0.24975873    -0.10560
C164        C  0.55132741  0.29998421  0.25012167    -0.12120
C165        C  0.07403555  0.18737430  0.25275780    -0.10560
C166        C  0.10855238  0.20571542  0.25102734    -0.12120
C167        C  0.16218765  0.44586383  0.25069130    -0.10560
C168        C  0.13586001  0.46822061  0.25093417    -0.12120
N169        N  0.24426378  0.38007374  0.74973619    -0.24580
N170        N  0.19746101  0.36787848  0.74898482    -0.32440
C171        C  0.16160934  0.38974932  0.74921666     0.03760
C172        C  0.18712167  0.41693812  0.75014824     0.09780
C173        C  0.23948481  0.41021465  0.75046081    -0.03320
H174        H  0.12007388  0.38607295  0.74874256     0.10450
H175        H  0.27158439  0.42590719  0.75114345     0.11650
Cu176      Cu  0.18420481  0.32214220  0.74783376     0.44170
Cu177      Cu  0.31113445  0.35424628  0.74969280     0.41990
Cu178      Cu  0.29350625  0.27184508  0.74814578     0.43880
N179        N  0.17705418  0.27591909  0.74776694    -0.31970
N180        N  0.21682827  0.25712540  0.74797578    -0.26220
C181        C  0.19857964  0.22871346  0.74860725    -0.02320
C182        C  0.14495715  0.23003324  0.74877057     0.09890
C183        C  0.13259557  0.26014666  0.74824221     0.03690
H184        H  0.22250908  0.20871897  0.74924045     0.11340
H185        H  0.09415631  0.26993040  0.74856252     0.10420
N186        N  0.36504904  0.29359419  0.74878754    -0.33420
N187        N  0.37100495  0.32316320  0.74937318    -0.25600
C188        C  0.42194541  0.32968426  0.74978356    -0.00840
C189        C  0.44913997  0.30306553  0.74944362     0.07770
C190        C  0.41225201  0.28057849  0.74881305     0.05870
H191        H  0.43790499  0.35218093  0.75033264     0.10970
H192        H  0.41907090  0.25659159  0.74845413     0.09810
N193        N  0.24289008  0.69017468  0.75053342    -0.24580
N194        N  0.19610636  0.70244070  0.74913303    -0.32440
C195        C  0.16023094  0.68052898  0.74945075     0.03760
C196        C  0.18571082  0.65327265  0.75109927     0.09780
C197        C  0.23807609  0.66000125  0.75174804    -0.03320
H198        H  0.11869148  0.68421518  0.74851413     0.10450
H199        H  0.27017296  0.64428502  0.75295229     0.11650
Cu200      Cu  0.18294376  0.74838969  0.74704400     0.44170
Cu201      Cu  0.30995224  0.71583690  0.75059768     0.41990
Cu202      Cu  0.29298361  0.79829244  0.74735891     0.43880
N203        N  0.17634357  0.79480672  0.74723861    -0.32010
N204        N  0.21643172  0.81340088  0.74751789    -0.26220
C205        C  0.19869884  0.84187771  0.74933095    -0.02320
C206        C  0.14505007  0.84088276  0.75031458     0.09890
C207        C  0.13219156  0.81082009  0.74882814     0.03690
H208        H  0.22302400  0.86169394  0.75054475     0.11340
H209        H  0.09360059  0.80122003  0.74960849     0.10420
N210        N  0.36447036  0.77633408  0.74873072    -0.33420
N211        N  0.37013675  0.74672016  0.75000037    -0.25600
C212        C  0.42100636  0.74000787  0.75070444    -0.00840
C213        C  0.44850103  0.76654673  0.74985004     0.07770
C214        C  0.41183657  0.78919017  0.74859910     0.05870
H215        H  0.43671166  0.71743262  0.75169148     0.10970
H216        H  0.41892170  0.81317270  0.74763145     0.09810
N217        N  0.81057729  0.68836973  0.75053175    -0.24580
N218        N  0.85726148  0.70061469  0.74857475    -0.32440
C219        C  0.89321719  0.67881507  0.74882831     0.03760
C220        C  0.86791045  0.65157736  0.75101029     0.09780
C221        C  0.81554021  0.65819959  0.75205131    -0.03320
H222        H  0.93466601  0.68258389  0.74722661     0.10450
H223        H  0.78357963  0.64242971  0.75357615     0.11650
Cu224      Cu  0.87018752  0.74625976  0.74457881     0.44170
Cu225      Cu  0.74384922  0.71437991  0.75048522     0.41990
Cu226      Cu  0.76173423  0.79704692  0.74362122     0.43880
N227        N  0.87781873  0.79230626  0.73921881    -0.31970
N228        N  0.83845094  0.81137109  0.73904124    -0.26220
C229        C  0.85729059  0.83964490  0.73649413    -0.02320
C230        C  0.91081329  0.83787199  0.73466769     0.09890
C231        C  0.92255085  0.80770274  0.73670522     0.03690
H232        H  0.83390901  0.85982410  0.73703313     0.11340
H233        H  0.96079115  0.79760458  0.73753600     0.10420
N234        N  0.69028903  0.77531845  0.74743650    -0.33420
N235        N  0.68423749  0.74572061  0.74980620    -0.25600
C236        C  0.63330668  0.73930126  0.75130840    -0.00840
C237        C  0.60622683  0.76600510  0.74983435     0.07770
C238        C  0.64317237  0.78844043  0.74737746     0.05870
H239        H  0.61726378  0.71681184  0.75309092     0.10970
H240        H  0.63644173  0.81246884  0.74541527     0.09810
O241        O  0.08505594  0.50169936  0.81117536    -0.70240
O242        O  0.97470187  0.56522566  0.81143786    -0.71220
O243        O  0.97518706  0.50139809  0.81085614    -0.59840
O244        O  0.08459011  0.56564375  0.81170076    -0.68250
O245        O  0.08123937  0.56789294  0.69128395    -0.67800
O246        O  0.97184840  0.50366372  0.69042946    -0.59050
O247        O  0.97137274  0.56748074  0.69100228    -0.71560
O248        O  0.08172889  0.50394545  0.69074806    -0.70340
Cu249      Cu  0.03002370  0.53341165  0.81554899     1.04560
Cu250      Cu  0.02645650  0.53582528  0.68660887     1.04330
C251        C  0.10020248  0.49264992  0.75091054     0.95960
C252        C  0.95608587  0.57643389  0.75127919     0.95100
C253        C  0.95673219  0.49233227  0.75051522     0.87250
C254        C  0.09955605  0.57706091  0.75160538     0.93520
N255        N  0.81192236  0.37994451  0.75035774    -0.24580
N256        N  0.85865784  0.36768451  0.75084688    -0.32440
C257        C  0.89463262  0.38950613  0.75073484     0.03760
C258        C  0.86928005  0.41674792  0.75015148     0.09780
C259        C  0.81686947  0.41010246  0.74992723    -0.03320
H260        H  0.93614478  0.38575746  0.75112349     0.10450
H261        H  0.78486356  0.42585438  0.74955634     0.11650
Cu262      Cu  0.87162814  0.32194489  0.75174372     0.44170
Cu263      Cu  0.74501467  0.35408780  0.75046879     0.41990
Cu264      Cu  0.76236693  0.27154806  0.75250475     0.43880
N265        N  0.87876458  0.27577143  0.75222250    -0.31970
N266        N  0.83905928  0.25691878  0.75253185    -0.26220
C267        C  0.85742587  0.22854986  0.75254514    -0.02320
C268        C  0.91103322  0.22999039  0.75215732     0.09890
C269        C  0.92327842  0.26010015  0.75202095     0.03690
H270        H  0.83360091  0.20851534  0.75275717     0.11340
H271        H  0.96168482  0.26996114  0.75174493     0.10420
N272        N  0.69091741  0.29338849  0.75158484    -0.33420
N273        N  0.68507477  0.32298696  0.75079988    -0.25600
C274        C  0.63415591  0.32956194  0.75020089    -0.00840
C275        C  0.60685643  0.30295437  0.75062453     0.07770
C276        C  0.64365979  0.28041156  0.75150437     0.05870
H277        H  0.61828088  0.35209160  0.74948346     0.10970
H278        H  0.63674795  0.25641558  0.75200152     0.09810
C279        C  0.02806091  0.16738519  0.75467384     0.00220
C280        C  0.02539196  0.90128388  0.75426259     0.00220
C281        C  0.01511093  0.13059977  0.94561284     0.05840
C282        C  0.02780756  0.14589623  0.00802103    -0.10310
C283        C  0.04135385  0.12919526  0.57304536     0.03340
C284        C  0.04022193  0.09760945  0.57553420    -0.08840
C285        C  0.02738046  0.08288694  0.01278369     0.05830
C286        C  0.01548044  0.09904933  0.94749668    -0.08260
H287        H  0.02809187  0.17030924  0.00610869     0.11420
H288        H  0.04951642  0.08513499  0.62598037     0.08950
H289        H  0.00616911  0.08720958  0.89857586     0.08800
C290        C  0.02637556  0.93981078  0.55882280     0.05840
C291        C  0.02834558  0.97125049  0.56554619    -0.10310
C292        C  0.02293224  0.99067957  0.50403141     0.03340
C293        C  0.03837353  0.97958866  0.93641974    -0.08840
C294        C  0.03920742  0.94845285  0.92797574     0.05830
C295        C  0.02089920  0.92838387  0.48883470    -0.08260
H296        H  0.03439612  0.98091427  0.61789173     0.11420
H297        H  0.04274543  0.99478660  0.88968423     0.08950
H298        H  0.01961637  0.90427711  0.48256266     0.08800
C299        C  0.02803623  0.05045827  0.01420167    -0.10560
C300        C  0.02908246  0.02339251  0.01159978    -0.12120
C301        C  0.04763620  0.93670098  0.85512760    -0.13720
C302        C  0.01845725  0.91432978  0.82834782    -0.28900
H303        H  0.07618330  0.94770518  0.82143083     0.15300
H304        H  0.98777935  0.90522517  0.86168164     0.15870
C305        C  0.02459736  0.92522504  0.69266441    -0.13720
C306        C  0.02974276  0.91805923  0.62272245    -0.28900
H307        H  0.01811063  0.94836658  0.70603360     0.15300
H308        H  0.03472676  0.89446043  0.61149962     0.15870
C309        C  0.03370937  0.14737071  0.82252329    -0.13720
C310        C  0.00260365  0.14833356  0.87879875    -0.28900
H311        H  0.06637401  0.13177934  0.82618451     0.15300
H312        H  0.97167277  0.16482328  0.87996708     0.15870
C313        C  0.02206845  0.14700641  0.69150563    -0.13720
C314        C  0.05480603  0.14626789  0.63707424    -0.28900
H315        H  0.98802410  0.13249167  0.68990126     0.15300
H316        H  0.08783900  0.16134074  0.63418980     0.15870
C317        C  0.94761747  0.20564060  0.75219359    -0.10560
C318        C  0.98222163  0.18734554  0.75295886    -0.12120
C319        C  0.92004264  0.46811519  0.75022655    -0.10560
C320        C  0.89378149  0.44571094  0.75010031    -0.12120
C321        C  0.94787373  0.86191914  0.73630104    -0.10560
C322        C  0.98207468  0.88028085  0.74166339    -0.12120
C323        C  0.89245730  0.62265812  0.75139194    -0.10560
C324        C  0.91899804  0.60039331  0.75142034    -0.12120
C325        C  0.50401211  0.76945064  0.74995076    -0.10560
C326        C  0.55079000  0.76926591  0.74995793    -0.12120
C327        C  0.07390673  0.88350256  0.75542247    -0.10560
C328        C  0.10900810  0.86552601  0.75367594    -0.12120
C329        C  0.16148068  0.62419257  0.75168266    -0.10560
C330        C  0.13575598  0.60155841  0.75182879    -0.12120
C331        C  0.50460069  0.29993340  0.74981979    -0.10560
C332        C  0.55138006  0.29989325  0.75018786    -0.12120
C333        C  0.07406485  0.18717187  0.75197727    -0.10560
C334        C  0.10853725  0.20555166  0.75036234    -0.12120
C335        C  0.16284542  0.44594261  0.75057717    -0.10560
C336        C  0.13681827  0.46841971  0.75078106    -0.12120
loop_ 
_geom_bond_atom_site_label_1 
_geom_bond_atom_site_label_2 
_geom_bond_distance 
_geom_bond_site_symmetry_2 
_ccdc_geom_bond_type 
N1            N2   1.322       .  A
N1            C5   1.348       .  A
N1           Cu9   2.072       .  S
N2            C3   1.342       .  A
N2           Cu8   2.063       .  S
C3            C4   1.376       .  A
C3            H6   1.082       .  S
C4            C5   1.382       .  A
C4          C167   1.435       .  S
C5            H7   1.082       .  S
Cu8          N11   2.063       .  S
Cu9          N19   2.073       .  S
Cu10         N12   2.080       .  S
Cu10         N18   2.080       .  S
N11          N12   1.322       .  A
N11          C15   1.343       .  A
N12          C13   1.348       .  A
C13          C14   1.383       .  A
C13          H16   1.082       .  S
C14          C15   1.377       .  A
C14         C166   1.437       .  S
C15          H17   1.082       .  S
N18          N19   1.325       .  A
N18          C22   1.347       .  A
N19          C20   1.343       .  A
C20          C21   1.377       .  A
C20          H23   1.082       .  S
C21          C22   1.379       .  A
C21         C163   1.435       .  S
C22          H24   1.082       .  S
N25          N26   1.321       .  A
N25          C29   1.348       .  A
N25         Cu33   2.072       .  S
N26          C27   1.341       .  A
N26         Cu32   2.059       .  S
C27          C28   1.376       .  A
C27          H30   1.082       .  S
C28          C29   1.382       .  A
C28         C161   1.434       .  S
C29          H31   1.082       .  S
Cu32         N35   2.059       .  S
Cu33         N43   2.074       .  S
Cu34         N36   2.080       .  S
Cu34         N42   2.081       .  S
N35          N36   1.322       .  A
N35          C39   1.342       .  A
N36          C37   1.348       .  A
C37          C38   1.383       .  A
C37          H40   1.082       .  S
C38          C39   1.376       .  A
C38         C160   1.435       .  S
C39          H41   1.082       .  S
N42          N43   1.325       .  A
N42          C46   1.347       .  A
N43          C44   1.344       .  A
C44          C45   1.377       .  A
C44          H47   1.082       .  S
C45          C46   1.380       .  A
C45         C157   1.435       .  S
C46          H48   1.082       .  S
N49          N50   1.322       .  A
N49          C53   1.348       .  A
N49         Cu57   2.071       .  S
N50          C51   1.343       .  A
N50         Cu56   2.070       .  S
C51          C52   1.378       .  A
C51          H54   1.082       .  S
C52          C53   1.381       .  A
C52         C155   1.436       .  S
C53          H55   1.082       .  S
Cu56         N59   2.071       .  S
Cu57         N67   2.072       .  S
Cu58         N60   2.082       .  S
Cu58         N66   2.082       .  S
N59          N60   1.323       .  A
N59          C63   1.344       .  A
N60          C61   1.349       .  A
C61          C62   1.383       .  A
C61          H64   1.082       .  S
C62          C63   1.378       .  A
C62         C153   1.440       .  S
C63          H65   1.082       .  S
N66          N67   1.325       .  A
N66          C70   1.347       .  A
N67          C68   1.343       .  A
C68          C69   1.377       .  A
C68          H71   1.082       .  S
C69          C70   1.380       .  A
C69         C158   1.435       .  S
C70          H72   1.082       .  S
O73         Cu81   2.007       .  S
O73          C83   1.276       .  A
O74         Cu81   2.009   1_655  S
O74          C84   1.276       .  A
O75         Cu81   2.007   1_655  S
O75          C85   1.276       .  A
O76         Cu81   2.006       .  S
O76          C86   1.276       .  A
O77         Cu82   2.006       .  S
O77          C86   1.276       .  A
O78         Cu82   2.007   1_655  S
O78          C85   1.276       .  A
O79         Cu82   2.008   1_655  S
O79          C84   1.276       .  A
O80         Cu82   2.007       .  S
O80          C83   1.276       .  A
Cu81        Cu82   2.381       .  S
C83         C168   1.433       .  S
C84         C156   1.434       .  S
C85         C151   1.433       .  S
C86         C162   1.432       .  S
N87          N88   1.321       .  A
N87          C91   1.347       .  A
N87         Cu95   2.071       .  S
N88          C89   1.342       .  A
N88         Cu94   2.063       .  S
C89          C90   1.377       .  A
C89          H92   1.082       .  S
C90          C91   1.381       .  A
C90         C152   1.435       .  S
C91          H93   1.082       .  S
Cu94         N97   2.063       .  S
Cu95        N105   2.072       .  S
Cu96         N98   2.080       .  S
Cu96        N104   2.080       .  S
N97          N98   1.323       .  A
N97         C101   1.343       .  A
N98          C99   1.348       .  A
C99         C100   1.382       .  A
C99         H102   1.082       .  S
C100        C101   1.376       .  A
C100        C149   1.436       .  S
C101        H103   1.082       .  S
N104        N105   1.325       .  A
N104        C108   1.347       .  A
N105        C106   1.343       .  A
C106        C107   1.377       .  A
C106        H109   1.082       .  S
C107        C108   1.380       .  A
C107        C164   1.435       .  S
C108        H110   1.082       .  S
C111        C141   1.510       .  S
C111        C145   1.511       .  S
C111        C150   1.476   1_455  S
C111        C165   1.477       .  S
C112        C134   1.525       .  S
C112        C137   1.527       .  S
C112        C154   1.477   1_455  S
C112        C159   1.474       .  S
C113        C114   1.392       .  A
C113        C118   1.403       .  A
C113        C142   1.463       .  S
C114        C283   1.393       .  A
C114        H119   1.085       .  S
C115        C116   1.405       .  A
C115        C282   1.392       .  A
C115        C146   1.463       .  S
C116        C285   1.404       .  A
C116        H120   1.084       .  S
C117        C118   1.403       .  A
C117        C284   1.404       .  A
C117        C131   1.442       .  S
C118        H121   1.084       .  S
C122        C123   1.410       .  A
C122        C127   1.412   1_554  A
C122        C138   1.497       .  S
C123        C124   1.403       .  A
C123        H128   1.081       .  S
C124        C293   1.401   1_554  A
C124        C300   1.443   1_565  S
C125        C126   1.400       .  A
C125        C292   1.400       .  A
C125        H129   1.085       .  S
C126        C295   1.409       .  A
C126        C133   1.486       .  S
C127        C294   1.410       .  A
C127        H130   1.084       .  S
C131        C132   1.207       .  T
C132        C292   1.443   1_545  S
C133        C134   1.346       .  D
C133        H135   1.086   1_455  S
C134        H136   1.089       .  S
C137        C138   1.356       .  D
C137        H139   1.084       .  S
C138        H140   1.087       .  S
C141        C142   1.340       .  D
C141        H143   1.089       .  S
C142        H144   1.085   1_455  S
C145        C146   1.340       .  D
C145        H147   1.089   1_455  S
C146        H148   1.085       .  S
C149        C150   1.207       .  T
C151        C152   1.205       .  T
C153        C154   1.209       .  T
C155        C156   1.205       .  T
C157        C158   1.205       .  T
C159        C160   1.206       .  T
C161        C162   1.204       .  T
C163        C164   1.205       .  T
C165        C166   1.207       .  T
C167        C168   1.204       .  T
N169        N170   1.322       .  A
N169        C173   1.348       .  A
N169       Cu177   2.071       .  S
N170        C171   1.342       .  A
N170       Cu176   2.064       .  S
C171        C172   1.377       .  A
C171        H174   1.082       .  S
C172        C173   1.381       .  A
C172        C335   1.435       .  S
C173        H175   1.082       .  S
Cu176       N179   2.065       .  S
Cu177       N187   2.072       .  S
Cu178       N180   2.080       .  S
Cu178       N186   2.081       .  S
N179        N180   1.323       .  A
N179        C183   1.343       .  A
N180        C181   1.348       .  A
C181        C182   1.383       .  A
C181        H184   1.082       .  S
C182        C183   1.377       .  A
C182        C334   1.437       .  S
C183        H185   1.082       .  S
N186        N187   1.325       .  A
N186        C190   1.347       .  A
N187        C188   1.343       .  A
C188        C189   1.377       .  A
C188        H191   1.082       .  S
C189        C190   1.380       .  A
C189        C331   1.435       .  S
C190        H192   1.082       .  S
N193        N194   1.322       .  A
N193        C197   1.348       .  A
N193       Cu201   2.070       .  S
N194        C195   1.343       .  A
N194       Cu200   2.071       .  S
C195        C196   1.378       .  A
C195        H198   1.082       .  S
C196        C197   1.381       .  A
C196        C329   1.436       .  S
C197        H199   1.082       .  S
Cu200       N203   2.073       .  S
Cu201       N211   2.071       .  S
Cu202       N204   2.084       .  S
Cu202       N210   2.084       .  S
N203        N204   1.323       .  A
N203        C207   1.344       .  A
N204        C205   1.349       .  A
C205        C206   1.383       .  A
C205        H208   1.082       .  S
C206        C207   1.379       .  A
C206        C328   1.442       .  S
C207        H209   1.082       .  S
N210        N211   1.325       .  A
N210        C214   1.347       .  A
N211        C212   1.343       .  A
C212        C213   1.377       .  A
C212        H215   1.082       .  S
C213        C214   1.380       .  A
C213        C325   1.436       .  S
C214        H216   1.082       .  S
N217        N218   1.321       .  A
N217        C221   1.348       .  A
N217       Cu225   2.072       .  S
N218        C219   1.341       .  A
N218       Cu224   2.057       .  S
C219        C220   1.376       .  A
C219        H222   1.082       .  S
C220        C221   1.382       .  A
C220        C323   1.434       .  S
C221        H223   1.082       .  S
Cu224       N227   2.057       .  S
Cu225       N235   2.074       .  S
Cu226       N228   2.080       .  S
Cu226       N234   2.081       .  S
N227        N228   1.322       .  A
N227        C231   1.342       .  A
N228        C229   1.348       .  A
C229        C230   1.383       .  A
C229        H232   1.082       .  S
C230        C231   1.375       .  A
C230        C321   1.434       .  S
C231        H233   1.082       .  S
N234        N235   1.325       .  A
N234        C238   1.347       .  A
N235        C236   1.344       .  A
C236        C237   1.377       .  A
C236        H239   1.082       .  S
C237        C238   1.380       .  A
C237        C326   1.435       .  S
C238        H240   1.082       .  S
O241       Cu249   2.007       .  S
O241        C251   1.276       .  A
O242       Cu249   2.006   1_655  S
O242        C252   1.276       .  A
O243       Cu249   2.008   1_655  S
O243        C253   1.276       .  A
O244       Cu249   2.009       .  S
O244        C254   1.276       .  A
O245       Cu250   2.008       .  S
O245        C254   1.276       .  A
O246       Cu250   2.007   1_655  S
O246        C253   1.276       .  A
O247       Cu250   2.006   1_655  S
O247        C252   1.276       .  A
O248       Cu250   2.007       .  S
O248        C251   1.276       .  A
Cu249      Cu250   2.381       .  S
C251        C336   1.433       .  S
C252        C324   1.432       .  S
C253        C319   1.433       .  S
C254        C330   1.434       .  S
N255        N256   1.321       .  A
N255        C259   1.348       .  A
N255       Cu263   2.072       .  S
N256        C257   1.342       .  A
N256       Cu262   2.062       .  S
C257        C258   1.377       .  A
C257        H260   1.082       .  S
C258        C259   1.382       .  A
C258        C320   1.435       .  S
C259        H261   1.082       .  S
Cu262       N265   2.063       .  S
Cu263       N273   2.073       .  S
Cu264       N266   2.080       .  S
Cu264       N272   2.081       .  S
N265        N266   1.322       .  A
N265        C269   1.342       .  A
N266        C267   1.348       .  A
C267        C268   1.383       .  A
C267        H270   1.082       .  S
C268        C269   1.376       .  A
C268        C317   1.436       .  S
C269        H271   1.082       .  S
N272        N273   1.325       .  A
N272        C276   1.347       .  A
N273        C274   1.343       .  A
C274        C275   1.377       .  A
C274        H277   1.082       .  S
C275        C276   1.380       .  A
C275        C332   1.435       .  S
C276        H278   1.082       .  S
C279        C309   1.511       .  S
C279        C313   1.511       .  S
C279        C318   1.476   1_455  S
C279        C333   1.477       .  S
C280        C302   1.527       .  S
C280        C305   1.527       .  S
C280        C322   1.473   1_455  S
C280        C327   1.478       .  S
C281        C282   1.392   1_556  A
C281        C286   1.403       .  A
C281        C310   1.463       .  S
C282        H287   1.085       .  S
C283        C284   1.405       .  A
C283        C314   1.463       .  S
C284        H288   1.084       .  S
C285        C286   1.403   1_554  A
C285        C299   1.442       .  S
C286        H289   1.084       .  S
C290        C291   1.410       .  A
C290        C295   1.412       .  A
C290        C306   1.496       .  S
C291        C292   1.403       .  A
C291        H296   1.081       .  S
C293        C294   1.401       .  A
C293        H297   1.085       .  S
C294        C301   1.489       .  S
C295        H298   1.084       .  S
C299        C300   1.208       .  T
C301        C302   1.346       .  D
C301        H303   1.086       .  S
C302        H304   1.089   1_455  S
C305        C306   1.356       .  D
C305        H307   1.083       .  S
C306        H308   1.087       .  S
C309        C310   1.341       .  D
C309        H311   1.089       .  S
C310        H312   1.085   1_455  S
C313        C314   1.340       .  D
C313        H315   1.089   1_455  S
C314        H316   1.085       .  S
C317        C318   1.207       .  T
C319        C320   1.205       .  T
C321        C322   1.205       .  T
C323        C324   1.204       .  T
C325        C326   1.205       .  T
C327        C328   1.210       .  T
C329        C330   1.205       .  T
C331        C332   1.205       .  T
C333        C334   1.207       .  T
C335        C336   1.205       .  T
