geometry optimzed in LAMMPS
_audit_creation_date              2020-11-30 
_audit_creation_method            'lammps2cif' 
_symmetry_space_group_name_H-M    'P1' 
_symmetry_Int_Tables_number       1 
_symmetry_cell_setting            triclinic 
loop_ 
_symmetry_equiv_pos_as_xyz 
  x,y,z 
_cell_length_a                    25.21967693915538 
_cell_length_b                    25.147351519985396 
_cell_length_c                    25.1806858764618 
_cell_angle_alpha                 87.35580773309994 
_cell_angle_beta                  90.44666465061877 
_cell_angle_gamma                 89.09030197570041 
loop_ 
_atom_site_label 
_atom_site_type_symbol 
_atom_site_fract_x 
_atom_site_fract_y 
_atom_site_fract_z 
_atom_site_charge 
C1          C  0.49046209  0.73324509  0.02632707     0.03590
C2          C  0.44171253  0.70637357  0.01987002    -0.12560
C3          C  0.44300420  0.65580163  0.99837103     0.01090
C4          C  0.49168761  0.63867657  0.97901171    -0.11080
C5          C  0.53904647  0.65419858  0.00209899     0.03590
C6          C  0.53921371  0.70446496  0.02366275    -0.10500
H7          H  0.40423244  0.72519981  0.02918279     0.09180
H8          H  0.49260373  0.60637685  0.95351073     0.06710
H9          H  0.57619428  0.72189423  0.03558367     0.06560
C10         C  0.66101857  0.56707513  0.97923929     0.03590
C11         C  0.63251462  0.61508611  0.98855324    -0.12560
C12         C  0.58127084  0.61181493  0.00899977     0.01090
C13         C  0.56410007  0.56115817  0.02531492    -0.11080
C14         C  0.58136589  0.51653406  0.99903905     0.03590
C15         C  0.63198068  0.51901426  0.97647644    -0.10500
H16         H  0.65004229  0.65381278  0.98224083     0.09180
H17         H  0.53094902  0.55769611  0.05086560     0.06710
H18         H  0.64934606  0.48403377  0.95956614     0.06560
C19         C  0.49465116  0.39428996  0.01753211     0.03590
C20         C  0.54259964  0.42287131  0.01099311    -0.12560
C21         C  0.54040001  0.47525449  0.98959393     0.01090
C22         C  0.49113539  0.49414309  0.97023786    -0.11080
C23         C  0.44403881  0.47547722  0.99277184     0.03590
C24         C  0.44531674  0.42297755  0.01447552    -0.10500
H25         H  0.58081181  0.40435446  0.02006814     0.09180
H26         H  0.48955977  0.52870305  0.94429022     0.06710
H27         H  0.40893379  0.40421321  0.02724952     0.06560
C28         C  0.32204080  0.56843981  0.97562084     0.03590
C29         C  0.35025037  0.51866458  0.98025949    -0.12560
C30         C  0.40173996  0.51709365  0.00199166     0.01090
C31         C  0.41902658  0.56370761  0.02426474    -0.11080
C32         C  0.40144870  0.61370771  0.00402585     0.03590
C33         C  0.35079081  0.61633014  0.98085021    -0.10500
H34         H  0.33214420  0.48184719  0.96988018     0.09180
H35         H  0.45236901  0.56156521  0.05027226     0.06710
H36         H  0.33306285  0.65467019  0.96925465     0.06560
C37         C  0.97737004  0.57543300  0.66150636     0.03590
C38         C  0.98298176  0.52703080  0.63494347    -0.12560
C39         C  0.00455038  0.52877251  0.58380968     0.01090
C40         C  0.02458888  0.57744179  0.56524310    -0.11080
C41         C  0.00218460  0.62524409  0.58080338     0.03590
C42         C  0.98079076  0.62495661  0.63208522    -0.10500
H43         H  0.97310756  0.48926540  0.65449468     0.09180
H44         H  0.05029174  0.57824790  0.53223726     0.06710
H45         H  0.96936087  0.66193733  0.64953781     0.06560
C46         C  0.02405207  0.74822034  0.48878393     0.03590
C47         C  0.01583084  0.71937303  0.53808009    -0.12560
C48         C  0.99533915  0.66800112  0.53742887     0.01090
C49         C  0.97835227  0.65105804  0.48806391    -0.11080
C50         C  0.00347694  0.66851895  0.44136961     0.03590
C51         C  0.02567229  0.71935907  0.44126176    -0.10500
H52         H  0.02298857  0.73691605  0.57585100     0.09180
H53         H  0.95286469  0.61798338  0.48695376     0.06710
H54         H  0.04155302  0.73703857  0.40485638     0.06560
C55         C  0.98808352  0.58073028  0.32176452     0.03590
C56         C  0.99075259  0.53136136  0.35174108    -0.12560
C57         C  0.01117261  0.53052845  0.40377351     0.01090
C58         C  0.03278667  0.57789248  0.42051014    -0.11080
C59         C  0.01289012  0.62720876  0.40086892     0.03590
C60         C  0.99230728  0.62904350  0.34886229    -0.10500
H61         H  0.97930920  0.49461816  0.33436384     0.09180
H62         H  0.05829108  0.57639718  0.45429307     0.06710
H63         H  0.98150222  0.66691827  0.32920405     0.06560
C64         C  0.02716474  0.40810983  0.49906098     0.03590
C65         C  0.02143996  0.43638346  0.54639474    -0.12560
C66         C  0.99875482  0.48752263  0.54308974     0.01090
C67         C  0.97894189  0.50561687  0.49337841    -0.11080
C68         C  0.00162174  0.48827505  0.44667363     0.03590
C69         C  0.02338126  0.43662144  0.44887436    -0.10500
H70         H  0.03209690  0.41793115  0.58479451     0.09180
H71         H  0.95290565  0.53920153  0.49111383     0.06710
H72         H  0.03425244  0.41844632  0.41233135     0.06560
C73         C  0.50363126  0.06084027  0.67973353     0.03590
C74         C  0.45581690  0.06234230  0.64961697    -0.12560
C75         C  0.45585154  0.08482757  0.59789465     0.01090
C76         C  0.50317453  0.10754034  0.58008944    -0.11080
C77         C  0.55214130  0.08772930  0.59981454     0.03590
C78         C  0.55273564  0.06650789  0.65250395    -0.10500
H79         H  0.41907913  0.04855661  0.66704746     0.09180
H80         H  0.50255774  0.13378966  0.54566816     0.06710
H81         H  0.59010005  0.05632718  0.67215122     0.06560
C82         C  0.67376834  0.09672034  0.50781596     0.03590
C83         C  0.64544131  0.09752256  0.55672181    -0.12560
C84         C  0.59375062  0.07765160  0.55858509     0.01090
C85         C  0.57582583  0.05391650  0.51301094    -0.11080
C86         C  0.59304941  0.07125875  0.46261244     0.03590
C87         C  0.64494582  0.09041492  0.45959239    -0.10500
H88         H  0.66414020  0.11086807  0.59248537     0.09180
H89         H  0.54174391  0.03000088  0.51585180     0.06710
H90         H  0.66313035  0.09784054  0.42121702     0.06560
C91         C  0.50377638  0.04801544  0.34149173     0.03590
C92         C  0.55259622  0.05580586  0.36907559    -0.12560
C93         C  0.55068019  0.07611018  0.42001486     0.01090
C94         C  0.50101933  0.09374657  0.43662614    -0.11080
C95         C  0.45501903  0.06874278  0.42083225     0.03590
C96         C  0.45588594  0.04631208  0.37109601    -0.10500
H97         H  0.59058004  0.04870885  0.35078784     0.09180
H98         H  0.49889947  0.11889161  0.46908760     0.06710
H99         H  0.41977960  0.03111102  0.35435782     0.06560
C100        C  0.33419024  0.09465823  0.50567693     0.03590
C101        C  0.36410753  0.09801105  0.55351688    -0.12560
C102        C  0.41467920  0.07422445  0.55683279     0.01090
C103        C  0.43117189  0.04601811  0.51332802    -0.11080
C104        C  0.41309705  0.06170515  0.46225842     0.03590
C105        C  0.36174343  0.08365807  0.45817833    -0.10500
H106        H  0.34725681  0.11595575  0.58797483     0.09180
H107        H  0.46402950  0.01902365  0.51772290     0.06710
H108        H  0.34332935  0.08999044  0.41939491     0.06560
O109        O  0.00299004  0.00718003  0.45366338    -0.71310
O110        O  0.00679968  0.15769552  0.45635150    -0.71530
O111        O  0.07946601  0.08062664  0.45490205    -0.71390
O112        O  0.92858672  0.08642515  0.45543122    -0.71400
O113        O  0.92976515  0.07451438  0.54140723    -0.71360
O114        O  0.07983881  0.08000493  0.54117860    -0.71380
O115        O  0.00151701  0.15216869  0.54256326    -0.71320
O116        O  0.00965038  0.00147906  0.53972451    -0.71510
V117        V  0.00416523  0.08256188  0.45667504     1.35240
V118        V  0.00494495  0.07697394  0.53957279     1.35170
C119        C  0.00872914  0.97857879  0.49607460     0.77920
C120        C  0.00564318  0.18039941  0.49999135     0.77980
C121        C  0.10521260  0.08216499  0.49808368     0.77850
C122        C  0.90346773  0.08229660  0.49872887     0.77810
O123        O  0.46052297  0.13953957  0.00605849    -0.71310
O124        O  0.45803934  0.98898087  0.01568027    -0.71530
O125        O  0.46086776  0.06503378  0.08588006    -0.71390
O126        O  0.45887658  0.06287937  0.93505603    -0.71400
O127        O  0.54506612  0.06259202  0.93501178    -0.71360
O128        O  0.54683417  0.05872252  0.08545735    -0.71380
O129        O  0.54417148  0.98564464  0.01200368    -0.71320
O130        O  0.54662116  0.13747476  0.00970678    -0.71510
V131        V  0.46126865  0.06418323  0.01053352     1.35240
V132        V  0.54405095  0.06141372  0.01035889     1.35170
C133        C  0.50360340  0.16429878  0.00786608     0.77920
C134        C  0.50048296  0.96179493  0.01577847     0.77980
C135        C  0.50427077  0.06021716  0.11135575     0.77850
C136        C  0.50183299  0.06140412  0.90947814     0.77810
O137        O  0.06698449  0.52947368  0.99123427    -0.71310
O138        O  0.91654333  0.53142568  0.99432342    -0.71530
O139        O  0.98909059  0.52953808  0.91794363    -0.71390
O140        O  0.99257047  0.53137963  0.06896825    -0.71400
O141        O  0.99237161  0.61789897  0.06382703    -0.71360
O142        O  0.98936819  0.61611232  0.91302818    -0.71380
O143        O  0.91591982  0.61780999  0.98857329    -0.71320
O144        O  0.06649167  0.61598495  0.98753663    -0.71510
V145        V  0.99152487  0.53212990  0.99322288     1.35240
V146        V  0.99118601  0.61525747  0.98847287     1.35170
C147        C  0.09236303  0.57246952  0.98808741     0.77920
C148        C  0.89054933  0.57482980  0.99037764     0.77980
C149        C  0.98749265  0.57258427  0.89003062     0.77850
C150        C  0.99164001  0.57502809  0.09204704     0.77810
C151        C  0.16351030  0.08709061  0.49904086     0.00310
C152        C  0.19156782  0.06335914  0.54230248    -0.11570
C153        C  0.24664169  0.06670834  0.54595663     0.02540
C154        C  0.27512463  0.09601753  0.50631831     0.00220
C155        C  0.24668999  0.12095597  0.46356035    -0.11500
C156        C  0.19147121  0.11640550  0.45939093     0.02430
H157        H  0.17043712  0.04053683  0.57278901     0.15410
H158        H  0.26766436  0.14365883  0.43295219     0.15410
C159        C  0.16454870  0.14313546  0.41466293     0.37060
C160        C  0.27257922  0.03648239  0.58921942     0.36970
N161        N  0.14300247  0.16447335  0.37874703    -0.43280
N162        N  0.29308694  0.01220987  0.62397727    -0.43280
C163        C  0.50193304  0.04831249  0.28240949     0.00310
C164        C  0.54152576  0.02131299  0.25486894    -0.11570
C165        C  0.54383075  0.02540920  0.19926613     0.02540
C166        C  0.50498289  0.05587187  0.17002288     0.00220
C167        C  0.46520115  0.08236469  0.19732619    -0.11500
C168        C  0.46395550  0.07998477  0.25277773     0.02430
H169        H  0.57101901  0.99716906  0.27680029     0.15410
H170        H  0.43587345  0.10664751  0.17521300     0.15410
C171        C  0.42528108  0.11358259  0.27766931     0.37060
C172        C  0.58568234  0.99679415  0.17337856     0.36970
N173        N  0.39430885  0.14066440  0.29735081    -0.43280
N174        N  0.61922353  0.97393854  0.15257881    -0.43280
C175        C  0.73282553  0.09567840  0.50768856     0.00310
C176        C  0.76057437  0.12912444  0.47176948    -0.11570
C177        C  0.81605785  0.12525910  0.46784227     0.02540
C178        C  0.84479635  0.08717923  0.50014499     0.00220
C179        C  0.81711357  0.05412340  0.53625153    -0.11500
C180        C  0.76180345  0.05743226  0.53974742     0.02430
H181        H  0.73885435  0.15834393  0.44675293     0.15500
H182        H  0.83873399  0.02453038  0.56095728     0.15410
C183        C  0.73566685  0.01867881  0.57421538     0.37060
C184        C  0.84269024  0.16222171  0.43194627     0.36970
N185        N  0.71468801  0.98749146  0.60160313    -0.43280
N186        N  0.86414471  0.19197259  0.40337659    -0.43280
C187        C  0.50155211  0.05862444  0.85104443     0.00310
C188        C  0.46754424  0.09301156  0.82122960    -0.11570
C189        C  0.46769646  0.09397311  0.76570963     0.02540
C190        C  0.50127298  0.05850970  0.73874329     0.00220
C191        C  0.53469911  0.02332023  0.76874208    -0.11500
C192        C  0.53512724  0.02316525  0.82449385     0.02430
H193        H  0.44211325  0.12067396  0.84140763     0.15410
H194        H  0.56044325  0.99591928  0.74863379     0.15410
C195        C  0.56904403  0.98509653  0.85357866     0.37060
C196        C  0.43535532  0.13426064  0.73763763     0.36970
N197        N  0.59608546  0.95441553  0.87685383    -0.43280
N198        N  0.40955554  0.16662567  0.71521464    -0.43280
C199        C  0.01162555  0.23833635  0.50116554     0.00310
C200        C  0.05165388  0.26247670  0.47049934    -0.11570
C201        C  0.05982863  0.31738384  0.47116630     0.02540
C202        C  0.02679111  0.34911720  0.50226031     0.00220
C203        C  0.98725858  0.32446851  0.53349784    -0.11500
C204        C  0.97960187  0.26961301  0.53334419     0.02430
H205        H  0.07717842  0.23817706  0.44661497     0.15410
H206        H  0.96076495  0.34846798  0.55666727     0.15410
C207        C  0.93673448  0.24685288  0.56409588     0.37060
C208        C  0.10317859  0.33971029  0.44094197     0.36970
N209        N  0.90228448  0.22854760  0.58850644    -0.43280
N210        N  0.13800178  0.35747175  0.41669457    -0.43280
C211        C  0.98935695  0.57628318  0.15065331     0.00310
C212        C  0.02849340  0.60373323  0.17742462    -0.11570
C213        C  0.02817480  0.60581679  0.23289392     0.02540
C214        C  0.98696570  0.58155815  0.26269850     0.00220
C215        C  0.94755094  0.55426203  0.23581842    -0.11500
C216        C  0.94844640  0.55150142  0.18021221     0.02430
H217        H  0.06029778  0.62234574  0.15499324     0.15410
H218        H  0.91607640  0.53511813  0.25828874     0.15410
C219        C  0.90597603  0.52469697  0.15421874     0.37060
C220        C  0.07256171  0.63010907  0.25848737     0.36970
N221        N  0.87170327  0.50341377  0.13351435    -0.43280
N222        N  0.10826487  0.64913989  0.27913566    -0.43280
C223        C  0.02519228  0.80770207  0.48694687     0.00310
C224        C  0.05090869  0.83394227  0.52779077    -0.11570
C225        C  0.04565102  0.88921637  0.53206789     0.02540
C226        C  0.01508093  0.91988001  0.49414939     0.00220
C227        C  0.99093873  0.89409240  0.45237330    -0.11500
C228        C  0.99479500  0.83877793  0.44891065     0.02430
H229        H  0.07464796  0.81114243  0.55709924     0.15410
H230        H  0.96719223  0.91711726  0.42317733     0.15410
C231        C  0.96385167  0.81517640  0.40786943     0.37060
C232        C  0.07272595  0.91330087  0.57540234     0.36970
N233        N  0.93899946  0.79639364  0.37496737    -0.43280
N234        N  0.09429582  0.93252455  0.61024908    -0.43280
C235        C  0.97913433  0.57418431  0.72004710     0.00310
C236        C  0.93224369  0.57365750  0.74936374    -0.11570
C237        C  0.93417935  0.57223796  0.80510205     0.02540
C238        C  0.98362225  0.57217723  0.83182417     0.00220
C239        C  0.03043224  0.57222549  0.80245388    -0.11500
C240        C  0.02856737  0.57279450  0.74693253     0.02430
H241        H  0.89431182  0.57397958  0.72875887     0.15410
H242        H  0.06845737  0.57166562  0.82295878     0.15410
C243        C  0.07792375  0.57151494  0.71822796     0.37060
C244        C  0.88501062  0.56980871  0.83384191     0.36970
N245        N  0.11739262  0.57022359  0.69515241    -0.43280
N246        N  0.84510962  0.56717349  0.85604868    -0.43280
C247        C  0.15089143  0.57206015  0.98422635     0.00310
C248        C  0.17591387  0.53894378  0.94821298    -0.11570
C249        C  0.23131522  0.53865248  0.94233142     0.02540
C250        C  0.26284479  0.57095710  0.97404893     0.00220
C251        C  0.23730161  0.60425499  0.00973645    -0.11500
C252        C  0.18212733  0.60538256  0.01471792     0.02430
H253        H  0.15196609  0.51411316  0.92372126     0.15410
H254        H  0.26069089  0.62856983  0.03525584     0.15410
C255        C  0.15881606  0.63929484  0.05331955     0.37060
C256        C  0.25428505  0.50665230  0.90203836     0.36970
N257        N  0.14030497  0.66647760  0.08431736    -0.43280
N258        N  0.27259452  0.48102479  0.86962949    -0.43280
C259        C  0.49565209  0.33497057  0.01937343     0.00310
C260        C  0.46453402  0.30970358  0.98177698    -0.11570
C261        C  0.46766220  0.25459366  0.97658183     0.02540
C262        C  0.50267934  0.22317453  0.00934644     0.00220
C263        C  0.53391742  0.24813755  0.04705933    -0.11500
C264        C  0.53038002  0.30348453  0.05262483     0.02430
H265        H  0.43869865  0.33341143  0.95503624     0.15410
H266        H  0.55999846  0.22414829  0.07327992     0.15410
C267        C  0.56108281  0.32656578  0.09406957     0.37060
C268        C  0.43611015  0.23159327  0.93564526     0.36970
N269        N  0.58562093  0.34509503  0.12734889    -0.43280
N270        N  0.41093999  0.21329636  0.90269740    -0.43280
C271        C  0.72016838  0.56674282  0.97814404     0.00310
C272        C  0.74677108  0.61079354  0.95520865    -0.11570
C273        C  0.80181025  0.61561432  0.96051200     0.02540
C274        C  0.83194458  0.57440776  0.98695650     0.00220
C275        C  0.80571485  0.52996944  0.00881464    -0.11500
C276        C  0.75060128  0.52636291  0.00604602     0.02430
H277        H  0.72453550  0.64210911  0.93353586     0.15410
H278        H  0.82832162  0.49834977  0.02971225     0.15410
C279        C  0.72680468  0.48239843  0.03561674     0.37060
C280        C  0.82617592  0.66264984  0.93716870     0.36970
N281        N  0.70803063  0.44716699  0.05951528    -0.43280
N282        N  0.84566776  0.70039321  0.91855861    -0.43280
C283        C  0.49857498  0.90347655  0.01993941     0.00310
C284        C  0.50318373  0.87546079  0.97349538    -0.11570
C285        C  0.49924693  0.82005775  0.97526017     0.02540
C286        C  0.49149729  0.79185682  0.02436614     0.00220
C287        C  0.48651473  0.81985560  0.07088337    -0.11500
C288        C  0.48949310  0.87557965  0.06889007     0.02430
H289        H  0.50898756  0.89699741  0.93570915     0.15410
H290        H  0.48036943  0.79825030  0.10854076     0.15410
C291        C  0.48300129  0.90325597  0.11740188     0.37060
C292        C  0.50243151  0.79289311  0.92601729     0.36970
N293        N  0.47737572  0.92508084  0.15646265    -0.43280
N294        N  0.50466095  0.77107473  0.88660408    -0.43280
loop_ 
_geom_bond_atom_site_label_1 
_geom_bond_atom_site_label_2 
_geom_bond_distance 
_geom_bond_site_symmetry_2 
_ccdc_geom_bond_type 
C1            C2   1.424       .  A
C1            C6   1.420       .  A
C1          C286   1.473       .  S
C2            C3   1.405   1_554  A
C2            H7   1.083       .  S
C3            C4   1.394       .  A
C3           C32   1.504   1_556  S
C4            C5   1.393   1_556  A
C4            H8   1.058       .  S
C5            C6   1.399       .  A
C5           C12   1.498       .  S
C6            H9   1.083       .  S
C10          C11   1.425       .  A
C10          C15   1.427       .  A
C10         C271   1.492       .  S
C11          C12   1.397   1_556  A
C11          H16   1.081       .  S
C12          C13   1.397       .  A
C13          C14   1.394   1_554  A
C13          H17   1.061       .  S
C14          C15   1.402       .  A
C14          C21   1.502       .  S
C15          H18   1.083       .  S
C19          C20   1.423       .  A
C19          C24   1.428       .  A
C19         C259   1.490       .  S
C20          C21   1.400   1_554  A
C20          H25   1.082       .  S
C21          C22   1.399       .  A
C22          C23   1.399       .  A
C22          H26   1.063       .  S
C23          C24   1.405   1_556  A
C23          C30   1.509   1_556  S
C24          H27   1.083       .  S
C28          C29   1.430       .  A
C28          C33   1.426       .  A
C28         C250   1.493       .  S
C29          C30   1.404   1_556  A
C29          H34   1.081       .  S
C30          C31   1.397       .  A
C31          C32   1.399       .  A
C31          H35   1.061       .  S
C32          C33   1.400   1_554  A
C33          H36   1.083       .  S
C37          C38   1.421       .  A
C37          C42   1.424       .  A
C37         C235   1.473       .  S
C38          C39   1.401   1_655  A
C38          H43   1.083       .  S
C39          C40   1.394       .  A
C39          C66   1.500   1_455  S
C40          C41   1.394       .  A
C40          H44   1.058       .  S
C41          C42   1.403   1_455  A
C41          C48   1.504   1_455  S
C42          H45   1.083       .  S
C46          C47   1.427       .  A
C46          C51   1.428       .  A
C46         C223   1.495       .  S
C47          C48   1.400   1_455  A
C47          H52   1.082       .  S
C48          C49   1.399       .  A
C49          C50   1.396   1_655  A
C49          H53   1.060       .  S
C50          C51   1.404       .  A
C50          C59   1.506       .  S
C51          H54   1.083       .  S
C55          C56   1.423       .  A
C55          C60   1.426       .  A
C55         C214   1.487       .  S
C56          C57   1.403   1_655  A
C56          H61   1.083       .  S
C57          C58   1.399       .  A
C57          C68   1.503       .  S
C58          C59   1.398       .  A
C58          H62   1.061       .  S
C59          C60   1.403   1_455  A
C60          H63   1.083       .  S
C64          C65   1.423       .  A
C64          C69   1.426       .  A
C64         C202   1.482       .  S
C65          C66   1.398   1_455  A
C65          H70   1.083       .  S
C66          C67   1.398       .  A
C67          C68   1.397   1_655  A
C67          H71   1.061       .  S
C68          C69   1.401       .  A
C69          H72   1.081       .  S
C73          C74   1.419       .  A
C73          C78   1.426       .  A
C73         C190   1.486       .  S
C74          C75   1.396       .  A
C74          H79   1.083       .  S
C75          C76   1.399       .  A
C75         C102   1.495       .  S
C76          C77   1.403       .  A
C76          H80   1.065       .  S
C77          C78   1.407       .  A
C77          C84   1.509       .  S
C78          H81   1.082       .  S
C82          C83   1.429       .  A
C82          C87   1.427       .  A
C82         C175   1.489       .  S
C83          C84   1.404       .  A
C83          H88   1.083       .  S
C84          C85   1.393       .  A
C85          C86   1.397       .  A
C85          H89   1.058       .  S
C86          C87   1.403       .  A
C86          C93   1.508       .  S
C87          H90   1.083       .  S
C91          C92   1.430       .  A
C91          C96   1.424       .  A
C91         C163   1.488       .  S
C92          C93   1.403       .  A
C92          H97   1.082       .  S
C93          C94   1.396       .  A
C94          C95   1.392       .  A
C94          H98   1.057       .  S
C95          C96   1.397       .  A
C95         C104   1.498       .  S
C96          H99   1.083       .  S
C100        C101   1.423       .  A
C100        C105   1.424       .  A
C100        C154   1.490       .  S
C101        C102   1.400       .  A
C101        H106   1.083       .  S
C102        C103   1.395       .  A
C103        C104   1.398       .  A
C103        H107   1.065       .  S
C104        C105   1.401       .  A
C105        H108   1.082       .  S
O109        V117   1.901       .  S
O109        C119   1.266   1_545  A
O110        V117   1.891       .  S
O110        C120   1.262       .  A
O111        V117   1.900       .  S
O111        C121   1.265       .  A
O112        V117   1.907   1_655  S
O112        C122   1.266       .  A
O113        V118   1.899   1_655  S
O113        C122   1.264       .  A
O114        V118   1.892       .  S
O114        C121   1.264       .  A
O115        V118   1.897       .  S
O115        C120   1.264       .  A
O116        V118   1.900       .  S
O116        C119   1.264   1_545  A
V117        V118   2.086       .  T
C119        C226   1.485       .  S
C120        C199   1.469       .  S
C121        C151   1.478       .  S
C122        C178   1.484       .  S
O123        V131   1.893       .  S
O123        C133   1.262       .  A
O124        V131   1.893   1_565  S
O124        C134   1.261       .  A
O125        V131   1.898       .  S
O125        C135   1.266       .  A
O126        V131   1.903   1_556  S
O126        C136   1.266       .  A
O127        V132   1.897   1_556  S
O127        C136   1.263       .  A
O128        V132   1.890       .  S
O128        C135   1.261       .  A
O129        V132   1.904   1_565  S
O129        C134   1.265       .  A
O130        V132   1.914       .  S
O130        C133   1.268       .  A
V131        V132   2.088       .  T
C133        C262   1.483       .  S
C134        C283   1.467       .  S
C135        C166   1.476       .  S
C136        C187   1.476       .  S
O137        V145   1.904   1_455  S
O137        C147   1.265       .  A
O138        V145   1.892       .  S
O138        C148   1.264       .  A
O139        V145   1.900       .  S
O139        C149   1.263       .  A
O140        V145   1.907   1_554  S
O140        C150   1.265       .  A
O141        V146   1.902   1_554  S
O141        C150   1.264       .  A
O142        V146   1.899       .  S
O142        C149   1.263       .  A
O143        V146   1.898       .  S
O143        C148   1.264       .  A
O144        V146   1.900   1_455  S
O144        C147   1.265       .  A
V145        V146   2.088       .  T
C147        C247   1.480       .  S
C148        C274   1.480       .  S
C149        C238   1.469       .  S
C150        C211   1.479       .  S
C151        C152   1.399       .  A
C151        C156   1.413       .  A
C152        C153   1.395       .  A
C152        H157   1.085       .  S
C153        C154   1.420       .  A
C153        C160   1.445       .  S
C154        C155   1.406       .  A
C155        C156   1.403       .  A
C155        H158   1.084       .  S
C156        C159   1.444       .  S
C159        N161   1.157       .  T
C160        N162   1.157       .  T
C163        C164   1.404       .  A
C163        C168   1.421       .  A
C164        C165   1.401       .  A
C164        H169   1.084   1_545  S
C165        C166   1.415       .  A
C165        C172   1.445   1_545  S
C166        C167   1.398       .  A
C167        C168   1.395       .  A
C167        H170   1.085       .  S
C168        C171   1.446       .  S
C171        N173   1.158       .  T
C172        N174   1.157       .  T
C175        C176   1.405       .  A
C175        C180   1.417       .  A
C176        C177   1.406       .  A
C176        H181   1.084       .  S
C177        C178   1.415       .  A
C177        C184   1.444       .  S
C178        C179   1.401       .  A
C179        C180   1.400       .  A
C179        H182   1.085       .  S
C180        C183   1.445       .  S
C183        N185   1.157   1_545  T
C184        N186   1.157       .  T
C187        C188   1.398       .  A
C187        C192   1.414       .  A
C188        C189   1.397       .  A
C188        H193   1.085       .  S
C189        C190   1.419       .  A
C189        C196   1.446       .  S
C190        C191   1.403       .  A
C191        C192   1.404       .  A
C191        H194   1.084   1_545  S
C192        C195   1.444   1_545  S
C195        N197   1.157       .  T
C196        N198   1.157       .  T
C199        C200   1.404       .  A
C199        C204   1.406   1_455  A
C200        C201   1.400       .  A
C200        H205   1.085       .  S
C201        C202   1.411       .  A
C201        C208   1.443       .  S
C202        C203   1.408   1_455  A
C203        C204   1.396       .  A
C203        H206   1.085       .  S
C204        C207   1.445       .  S
C207        N209   1.157       .  T
C208        N210   1.157       .  T
C211        C212   1.400   1_655  A
C211        C216   1.413       .  A
C212        C213   1.400       .  A
C212        H217   1.084       .  S
C213        C214   1.416   1_455  A
C213        C220   1.445       .  S
C214        C215   1.404       .  A
C215        C216   1.405       .  A
C215        H218   1.084       .  S
C216        C219   1.443       .  S
C219        N221   1.157       .  T
C220        N222   1.157       .  T
C223        C224   1.407       .  A
C223        C228   1.420   1_455  A
C224        C225   1.403       .  A
C224        H229   1.084       .  S
C225        C226   1.415       .  A
C225        C232   1.444       .  S
C226        C227   1.401   1_455  A
C227        C228   1.400       .  A
C227        H230   1.085       .  S
C228        C231   1.445       .  S
C231        N233   1.157       .  T
C232        N234   1.157       .  T
C235        C236   1.399       .  A
C235        C240   1.413   1_655  A
C236        C237   1.403       .  A
C236        H241   1.084       .  S
C237        C238   1.412       .  A
C237        C244   1.441       .  S
C238        C239   1.398   1_655  A
C239        C240   1.398       .  A
C239        H242   1.085       .  S
C240        C243   1.445       .  S
C243        N245   1.157       .  T
C244        N246   1.156       .  T
C247        C248   1.406       .  A
C247        C252   1.408   1_556  A
C248        C249   1.406       .  A
C248        H253   1.085       .  S
C249        C250   1.414       .  A
C249        C256   1.443       .  S
C250        C251   1.409   1_556  A
C251        C252   1.398       .  A
C251        H254   1.085       .  S
C252        C255   1.445       .  S
C255        N257   1.157       .  T
C256        N258   1.157       .  T
C259        C260   1.406   1_554  A
C259        C264   1.414       .  A
C260        C261   1.399       .  A
C260        H265   1.085       .  S
C261        C262   1.411   1_556  A
C261        C268   1.445       .  S
C262        C263   1.406       .  A
C263        C264   1.407       .  A
C263        H266   1.085       .  S
C264        C267   1.443       .  S
C267        N269   1.157       .  T
C268        N270   1.157       .  T
C271        C272   1.408       .  A
C271        C276   1.419   1_556  A
C272        C273   1.401       .  A
C272        H277   1.084       .  S
C273        C274   1.414       .  A
C273        C280   1.445       .  S
C274        C275   1.401   1_556  A
C275        C276   1.396       .  A
C275        H278   1.085       .  S
C276        C279   1.445       .  S
C279        N281   1.158       .  T
C280        N282   1.157       .  T
C283        C284   1.398   1_554  A
C283        C288   1.412       .  A
C284        C285   1.397       .  A
C284        H289   1.085       .  S
C285        C286   1.413   1_556  A
C285        C292   1.445       .  S
C286        C287   1.400       .  A
C287        C288   1.403       .  A
C287        H290   1.084       .  S
C288        C291   1.443       .  S
C291        N293   1.157       .  T
C292        N294   1.157       .  T
