geometry optimzed in LAMMPS
_audit_creation_date              2020-11-30 
_audit_creation_method            'lammps2cif' 
_symmetry_space_group_name_H-M    'P1' 
_symmetry_Int_Tables_number       1 
_symmetry_cell_setting            triclinic 
loop_ 
_symmetry_equiv_pos_as_xyz 
  x,y,z 
_cell_length_a                    18.14620991 
_cell_length_b                    62.985481110500416 
_cell_length_c                    28.95397998253128 
_cell_angle_alpha                 89.79478747252696 
_cell_angle_beta                  89.50129640649607 
_cell_angle_gamma                 76.39484556236233 
loop_ 
_atom_site_label 
_atom_site_type_symbol 
_atom_site_fract_x 
_atom_site_fract_y 
_atom_site_fract_z 
_atom_site_charge 
N1          N  0.21813425  0.37129677  0.44090446    -0.03400
C2          C  0.27839909  0.37413657  0.41557441    -0.00800
C3          C  0.29724671  0.35829357  0.38180304    -0.23700
C4          C  0.24767256  0.34514978  0.38649042    -0.23900
C5          C  0.19972700  0.35329515  0.42298235    -0.00900
H6          H  0.34541221  0.35560935  0.35841438     0.12900
H7          H  0.24910157  0.33043390  0.36695100     0.13000
N8          N  0.33423063  0.43842137  0.58181268    -0.03400
C9          C  0.40145577  0.42790242  0.60114993    -0.00800
C10         C  0.40096001  0.40671085  0.61292424    -0.23700
C11         C  0.33176836  0.40370638  0.60103537    -0.23900
C12         C  0.29128690  0.42309750  0.58207738    -0.00900
H13         H  0.44685564  0.39456501  0.62792949     0.12900
H14         H  0.31347520  0.38861665  0.60476186     0.13000
N15         N  0.96180636  0.46414324  0.61021374    -0.03400
C16         C  0.90870593  0.46062203  0.64080872    -0.00800
C17         C  0.90518607  0.47405500  0.67884536    -0.23700
C18         C  0.95665114  0.48647548  0.67121436    -0.23900
C19         C  0.99005697  0.48025051  0.62875842    -0.00900
H20         H  0.86448140  0.47611650  0.70698952     0.12900
H21         H  0.96427236  0.49986994  0.69252850     0.13000
O22         O  0.15932608  0.40764522  0.45939275    -0.72800
O23         O  0.03003604  0.45394926  0.54088748    -0.73800
O24         O  0.18908393  0.43628728  0.52906069    -0.62400
O25         O  0.00035727  0.42619921  0.47045012    -0.70800
O26         O  0.98673783  0.40051591  0.52026111    -0.70400
O27         O  0.17895820  0.41002062  0.57811273    -0.61600
O28         O  0.01891231  0.42795437  0.59046433    -0.74200
O29         O  0.14533613  0.38173156  0.50843493    -0.72900
Cu30       Cu  0.09477575  0.43183939  0.49798768     1.04600
Cu31       Cu  0.08255621  0.40416385  0.55125860     1.04300
C32         C  0.17260645  0.38744938  0.47090740     0.93400
C33         C  0.00379731  0.44808170  0.57872693     0.92500
C34         C  0.21503653  0.42395239  0.56293906     0.84700
C35         C  0.96210573  0.41305868  0.48629025     0.90900
N36         N  0.83684132  0.40181809  0.47298154    -0.03400
C37         C  0.76924704  0.41351133  0.45685809    -0.00800
C38         C  0.77404999  0.43396374  0.44219586    -0.23700
C39         C  0.84699611  0.43522138  0.44942588    -0.23900
C40         C  0.88485847  0.41544000  0.46816803    -0.00900
H41         H  0.72886431  0.44669980  0.42829823     0.12900
H42         H  0.86942172  0.44946272  0.44319394     0.13000
C43         C  0.91913920  0.20626337  0.53804832     0.86600
C44         C  0.99574035  0.21199454  0.52698225    -0.53600
C45         C  0.99640640  0.22373982  0.48695304     0.09500
C46         C  0.92141940  0.22726151  0.46051845     0.20500
C47         C  0.86080943  0.22869465  0.53563843    -0.54400
C48         C  0.86445018  0.24041215  0.49573371     0.09600
C49         C  0.90144537  0.19399355  0.49521260    -0.53900
C50         C  0.90436089  0.20451987  0.45415425     0.10200
H51         H  0.04139078  0.20946879  0.55186949     0.14700
H52         H  0.92216254  0.23570261  0.42729497     0.00500
H53         H  0.82582356  0.23571189  0.56480564     0.15000
H54         H  0.88775007  0.17817743  0.49736970     0.14800
C55         C  0.19432646  0.63761789  0.57209700     0.86600
C56         C  0.11719973  0.63154813  0.56872909    -0.53600
C57         C  0.11148211  0.61752464  0.53365347     0.09500
C58         C  0.17893768  0.61445019  0.49961581     0.20500
C59         C  0.25463058  0.61569079  0.56753403    -0.54400
C60         C  0.24506281  0.60255298  0.53105979     0.09600
C61         C  0.20028902  0.64937830  0.52652690    -0.53900
C62         C  0.19014279  0.63787067  0.48798238     0.10200
H63         H  0.07713057  0.63433465  0.59747035     0.14700
H64         H  0.17026058  0.60540699  0.46816755     0.00500
H65         H  0.29554916  0.61025154  0.59464420     0.15000
H66         H  0.20882373  0.66578439  0.52424717     0.14800
N67         N  0.94609375  0.09836924  0.90049646    -0.27200
N68         N  0.94071343  0.11718346  0.92206615    -0.35000
C69         C  0.93739397  0.13310274  0.89018378     0.01200
C70         C  0.94081045  0.12409737  0.84607225     0.07200
C71         C  0.94637427  0.10195130  0.85444019    -0.05900
H72         H  0.93317967  0.15004584  0.89869751     0.07900
H73         H  0.94985016  0.08927023  0.82888797     0.09100
Cu74       Cu  0.93736348  0.12051041  0.99460629     0.44200
Cu75       Cu  0.95354076  0.06828580  0.93489609     0.42000
Cu76       Cu  0.94987410  0.07008014  0.05994882     0.43900
N77         N  0.93263056  0.11929928  0.06739574    -0.34600
N78         N  0.93706015  0.10094375  0.09073666    -0.28800
C79         C  0.93234362  0.10548295  0.13630735    -0.04900
C80         C  0.92450575  0.12781854  0.14266768     0.07300
C81         C  0.92487868  0.13595699  0.09779550     0.01100
H82         H  0.93418602  0.09326199  0.16284742     0.08800
H83         H  0.92044483  0.15276753  0.08783353     0.07800
N84         N  0.96405809  0.04083925  0.02243526    -0.36000
N85         N  0.96512653  0.04015148  0.97677434    -0.28200
C86         C  0.97695411  0.01908177  0.96334045    -0.03400
C87         C  0.98398519  0.00561066  0.00226661     0.05200
C88         C  0.97518746  0.02025522  0.03904685     0.03300
H89         H  0.98087513  0.01398640  0.92761696     0.08400
H90         H  0.97791192  0.01628206  0.07544248     0.07200
N91         N  0.16054051  0.74369303  0.93423219    -0.27200
N92         N  0.16645072  0.72519399  0.95723555    -0.35000
C93         C  0.17228079  0.70877006  0.92649349     0.01200
C94         C  0.17008940  0.71719161  0.88171662     0.07200
C95         C  0.16271354  0.73947825  0.88848520    -0.05900
H96         H  0.17767342  0.69189088  0.93621394     0.07900
H97         H  0.15797499  0.75190761  0.86210999     0.09100
Cu98       Cu  0.16444898  0.72355832  0.03013683     0.44200
Cu99       Cu  0.14611875  0.77419385  0.96644905     0.42000
Cu100      Cu  0.12663939  0.77615784  0.09180996     0.43900
N101        N  0.15702481  0.72629162  0.10286003    -0.34600
N102        N  0.14201438  0.74519055  0.12513449    -0.28800
C103        C  0.13930407  0.74108539  0.17097525    -0.04900
C104        C  0.15370395  0.71854736  0.17846200     0.07300
C105        C  0.16478060  0.70985715  0.13404871     0.01100
H106        H  0.12829903  0.75367706  0.19712250     0.08800
H107        H  0.17654690  0.69274954  0.12490736     0.07800
N108        N  0.11585392  0.80453106  0.04967775    -0.36000
N109        N  0.12404028  0.80340848  0.00422047    -0.28200
C110        C  0.11361545  0.82378334  0.98683286    -0.03400
C111        C  0.09768858  0.83892468  0.02264874     0.05200
C112        C  0.09981024  0.82587975  0.06209638     0.03300
H113        H  0.11674732  0.82720853  0.95036014     0.08400
H114        H  0.08992874  0.83149030  0.09736181     0.07200
C115        C  0.08097292  0.86354938  0.01870079    -0.01200
C116        C  0.08141657  0.87371624  0.97534467    -0.09200
C117        C  0.06572892  0.89654977  0.97081998    -0.18000
C118        C  0.04874891  0.91043548  0.00970737     0.04400
C119        C  0.04825506  0.90026774  0.05364864     0.18600
C120        C  0.06418098  0.87718716  0.05774909    -0.19400
C121        C  0.03182376  0.91323131  0.09336833    -0.20700
C122        C  0.01608535  0.93597317  0.09052323    -0.19300
C123        C  0.01619571  0.94655314  0.04785049     0.19900
C124        C  0.03237670  0.93396259  0.00674526     0.02100
C125        C  0.03144850  0.94553929  0.96463999    -0.14000
C126        C  0.01552838  0.96847677  0.96347545    -0.11700
C127        C  0.99989690  0.98098487  0.00405158     0.01600
C128        C  0.00030756  0.96967272  0.04619940    -0.23900
H129        H  0.09397921  0.86405792  0.94424112     0.09600
H130        H  0.06737578  0.90286046  0.93628941     0.13200
H131        H  0.06335001  0.86990630  0.09162020     0.11900
H132        H  0.03119899  0.90571158  0.12705025     0.13100
H133        H  0.00377220  0.94537791  0.12208910     0.12100
H134        H  0.04297744  0.93730255  0.93190347     0.09200
H135        H  0.01608573  0.97636675  0.93028415     0.12500
H136        H  0.98814088  0.97880347  0.07806547     0.14300
C137        C  0.19879648  0.64942557  0.61842911    -0.01200
C138        C  0.19367301  0.63798625  0.65977617    -0.09200
C139        C  0.18917005  0.64811093  0.70304251    -0.18000
C140        C  0.18981070  0.67040743  0.70723492     0.04400
C141        C  0.19707100  0.68199107  0.66579159     0.18600
C142        C  0.20145292  0.67156355  0.62218718    -0.19400
C143        C  0.19907575  0.70407001  0.66805969    -0.20700
C144        C  0.19413862  0.71486053  0.71035830    -0.19300
C145        C  0.18645272  0.70398839  0.75180402     0.19900
C146        C  0.18368888  0.68162666  0.75090322     0.02100
C147        C  0.17468016  0.67157933  0.79376996    -0.14000
C148        C  0.17007173  0.68309893  0.83554763    -0.11700
C149        C  0.17398902  0.70510695  0.83660784     0.01600
C150        C  0.18172011  0.71540412  0.79414173    -0.23900
H151        H  0.19143220  0.62096510  0.65855595     0.09600
H152        H  0.18478312  0.63804692  0.73257598     0.13200
H153        H  0.20509711  0.68107803  0.59157725     0.11900
H154        H  0.20459487  0.71310192  0.63681669     0.13100
H155        H  0.19617431  0.73191819  0.71060717     0.12100
H156        H  0.17084128  0.65481496  0.79617887     0.09200
H157        H  0.16308916  0.67458657  0.86720893     0.12500
H158        H  0.18481817  0.73235224  0.79378493     0.14300
C159        C  0.17944186  0.64901417  0.44115182    -0.01200
C160        C  0.14045199  0.67112504  0.43840338    -0.09200
C161        C  0.13306992  0.68272740  0.39666344    -0.18000
C162        C  0.16448988  0.67276142  0.35505036     0.04400
C163        C  0.20221959  0.65020760  0.35711638     0.18600
C164        C  0.20890913  0.63853841  0.39975972    -0.19400
C165        C  0.23378868  0.63957720  0.31658351    -0.20700
C166        C  0.22919646  0.65076426  0.27446398    -0.19300
C167        C  0.19309081  0.67302451  0.27132718     0.19900
C168        C  0.16015233  0.68435536  0.31162716     0.02100
C169        C  0.12503659  0.70685186  0.30665709    -0.14000
C170        C  0.12332737  0.71760634  0.26392030    -0.11700
C171        C  0.15582796  0.70653111  0.22395792     0.01600
C172        C  0.19026463  0.68404176  0.22820009    -0.23900
H173        H  0.11491391  0.67968918  0.46905875     0.09600
H174        H  0.10247965  0.69960087  0.39819798     0.13200
H175        H  0.23891604  0.62149280  0.40089372     0.11900
H176        H  0.26266394  0.62243461  0.31745706     0.13100
H177        H  0.25460034  0.64191869  0.24405808     0.12100
H178        H  0.09859560  0.71669246  0.33534239     0.09200
H179        H  0.09556075  0.73479001  0.26227892     0.12500
H180        H  0.21614658  0.67508431  0.19804727     0.14300
C181        C  0.93870620  0.13559840  0.80015439    -0.01200
C182        C  0.95541446  0.12372009  0.75881398    -0.09200
C183        C  0.95372890  0.13429702  0.71586174    -0.18000
C184        C  0.93477737  0.15737722  0.71231884     0.04400
C185        C  0.91683669  0.16941437  0.75402590     0.18600
C186        C  0.91950790  0.15856481  0.79708332    -0.19400
C187        C  0.89585765  0.19228570  0.75253640    -0.20700
C188        C  0.89164833  0.20347628  0.71064569    -0.19300
C189        C  0.90927479  0.19219026  0.66886640     0.19900
C190        C  0.93221460  0.16898571  0.66911187     0.02100
C191        C  0.95299603  0.15854938  0.62619483    -0.14000
C192        C  0.94900123  0.17053795  0.58493833    -0.11700
C193        C  0.92172701  0.19342627  0.58401678     0.01600
C194        C  0.90464309  0.20406574  0.62694187    -0.23900
H195        H  0.97043780  0.10605621  0.75943356     0.09600
H196        H  0.96682875  0.12394198  0.68586933     0.13200
H197        H  0.90553449  0.16817356  0.82825204     0.11900
H198        H  0.88199840  0.20163603  0.78408586     0.13100
H199        H  0.87458560  0.22116421  0.71097852     0.12100
H200        H  0.97402872  0.14109009  0.62351540     0.09200
H201        H  0.96828667  0.16165168  0.55351648     0.12500
H202        H  0.88886456  0.22172657  0.62820312     0.14300
C203        C  0.89961299  0.19403064  0.40756749    -0.01200
C204        C  0.87999131  0.20668520  0.36740035    -0.09200
C205        C  0.88144308  0.19694610  0.32362876    -0.18000
C206        C  0.90195108  0.17396850  0.31813159     0.04400
C207        C  0.91915045  0.16115028  0.35887421     0.18600
C208        C  0.91851618  0.17113453  0.40250380    -0.19400
C209        C  0.93786291  0.13832121  0.35593216    -0.20700
C210        C  0.94058866  0.12788839  0.31346589    -0.19300
C211        C  0.92568200  0.13993993  0.27247886     0.19900
C212        C  0.90629651  0.16316214  0.27400286     0.02100
C213        C  0.89327273  0.17438027  0.23123968    -0.14000
C214        C  0.89925055  0.16301351  0.18908029    -0.11700
C215        C  0.91797081  0.14004859  0.18770234     0.01600
C216        C  0.93084957  0.12875401  0.22997542    -0.23900
H217        H  0.86287433  0.22429728  0.36941920     0.09600
H218        H  0.86594546  0.20782482  0.29464711     0.13200
H219        H  0.93507970  0.16081838  0.43241606     0.11900
H220        H  0.95063125  0.12840216  0.38681086     0.13100
H221        H  0.95530984  0.11018955  0.31266547     0.12100
H222        H  0.87897784  0.19196432  0.22930036     0.09200
H223        H  0.88872963  0.17237437  0.15742214     0.12500
H224        H  0.94609728  0.11107938  0.23009574     0.14300
C225        C  0.85502152  0.37835291  0.47879351    -0.01200
C226        C  0.85560174  0.36894695  0.52267452    -0.09200
C227        C  0.85633143  0.34666530  0.52780541    -0.18000
C228        C  0.85510514  0.33312020  0.48885181     0.04400
C229        C  0.85683415  0.34272664  0.44443228     0.18600
C230        C  0.85719377  0.36498893  0.43992286    -0.19400
C231        C  0.85551130  0.33027335  0.40462982    -0.20700
C232        C  0.85119604  0.30855105  0.40778894    -0.19300
C233        C  0.84856691  0.29855937  0.45085506     0.19900
C234        C  0.85095930  0.31059150  0.49206025     0.02100
C235        C  0.84894662  0.29948299  0.53444555    -0.14000
C236        C  0.84812474  0.27723468  0.53575446    -0.11700
C237        C  0.84778861  0.26513824  0.49495623     0.01600
C238        C  0.84525357  0.27640513  0.45269185    -0.23900
H239        H  0.85217902  0.37911652  0.55306284     0.09600
H240        H  0.85552855  0.34065058  0.56263968     0.13200
H241        H  0.85507087  0.37236453  0.40591969     0.11900
H242        H  0.85706511  0.33746326  0.37067352     0.13100
H243        H  0.85021762  0.29945513  0.37619346     0.12100
H244        H  0.85023503  0.30741272  0.56723030     0.09200
H245        H  0.85151824  0.26936487  0.56917897     0.12500
H246        H  0.84305990  0.26779030  0.42065758     0.14300
C247        C  0.03493943  0.49353855  0.60423955    -0.01200
C248        C  0.08686172  0.50188678  0.62965981    -0.09200
C249        C  0.10559477  0.52112742  0.61599793    -0.18000
C250        C  0.07232186  0.53247443  0.57643908     0.04400
C251        C  0.03160139  0.52187494  0.54625206     0.18600
C252        C  0.01177122  0.50260532  0.56079059    -0.19400
C253        C  0.00671389  0.53151297  0.50365731    -0.20700
C254        C  0.01918130  0.55191414  0.49163370    -0.19300
C255        C  0.05116936  0.56379546  0.52349043     0.19900
C256        C  0.07554926  0.55431929  0.56696322     0.02100
C257        C  0.09710236  0.56750999  0.60081371    -0.14000
C258        C  0.09997408  0.58879029  0.59095146    -0.11700
C259        C  0.08399293  0.59768104  0.54643337     0.01600
C260        C  0.05840093  0.58510877  0.51286882    -0.23900
H261        H  0.10742046  0.49462390  0.66247924     0.09600
H262        H  0.14406454  0.52721895  0.63772626     0.13200
H263        H  0.97203888  0.49612189  0.54063941     0.11900
H264        H  0.97706541  0.52332225  0.47975620     0.13100
H265        H  0.00006982  0.55890891  0.45835420     0.12100
H266        H  0.11105591  0.56187255  0.63560812     0.09200
H267        H  0.12091305  0.59762048  0.61786907     0.12500
H268        H  0.04544707  0.59175884  0.47851754     0.14300
C269        C  0.46981955  0.43644365  0.60866995    -0.01200
C270        C  0.50714108  0.43202528  0.65097408    -0.09200
C271        C  0.58074983  0.43454159  0.65640224    -0.18000
C272        C  0.62023945  0.44150141  0.61924288     0.04400
C273        C  0.58049086  0.44740356  0.57718427     0.18600
C274        C  0.50582913  0.44475474  0.57215878    -0.19400
C275        C  0.61626389  0.45544106  0.54023031    -0.20700
C276        C  0.69022902  0.45796654  0.54433385    -0.19300
C277        C  0.73134134  0.45183337  0.58491506     0.19900
C278        C  0.69738868  0.44303753  0.62258838     0.02100
C279        C  0.74202890  0.43629134  0.66216930    -0.14000
C280        C  0.81443035  0.44006372  0.66587384    -0.11700
C281        C  0.84547424  0.45029858  0.63019102     0.01600
C282        C  0.80508724  0.45526866  0.58889179    -0.23900
H283        H  0.48009332  0.42565320  0.67965770     0.09600
H284        H  0.60535684  0.43065730  0.68998086     0.13200
H285        H  0.47750216  0.44796986  0.53917389     0.11300
H286        H  0.58657090  0.46001625  0.50806449     0.13100
H287        H  0.71545535  0.46480513  0.51555787     0.12100
H288        H  0.72202535  0.42854938  0.69135389     0.09200
H289        H  0.84485061  0.43604643  0.69798708     0.12500
H290        H  0.82854066  0.46336838  0.56124682     0.14300
C291        C  0.31198600  0.46185036  0.57305332    -0.01200
C292        C  0.29015404  0.47038142  0.52908407    -0.09200
C293        C  0.27894438  0.49296985  0.51984084    -0.18000
C294        C  0.29054574  0.50784009  0.55428523     0.04400
C295        C  0.31136403  0.49905241  0.59892881     0.18600
C296        C  0.32129036  0.47650638  0.60777753    -0.19400
C297        C  0.32369907  0.51273955  0.63455311    -0.20700
C298        C  0.31618230  0.53496925  0.62701327    -0.19300
C299        C  0.29640882  0.54428431  0.58352213     0.19900
C300        C  0.28326166  0.53095697  0.54641094     0.02100
C301        C  0.26381176  0.54146994  0.50338422    -0.14000
C302        C  0.25624859  0.56417409  0.49788344    -0.11700
C303        C  0.26704896  0.57758249  0.53493644     0.01600
C304        C  0.28849317  0.56700801  0.57758951    -0.23900
H305        H  0.28451571  0.45945294  0.50128069     0.09600
H306        H  0.26278671  0.49832324  0.48518572     0.13200
H307        H  0.33855905  0.47010482  0.64181559     0.11900
H308        H  0.33959923  0.50617509  0.66864917     0.13100
H309        H  0.32611202  0.54498209  0.65558661     0.12100
H310        H  0.25337308  0.53252481  0.47341537     0.09200
H311        H  0.24041903  0.57121399  0.46427941     0.12500
H312        H  0.29586003  0.57642596  0.60755947     0.14300
C313        C  0.69839998  0.40614040  0.45353520    -0.01200
C314        C  0.66194905  0.40069045  0.49302899    -0.09200
C315        C  0.58737980  0.39817085  0.49056377    -0.18000
C316        C  0.54765723  0.40103461  0.44816959     0.04400
C317        C  0.58657708  0.40606631  0.40822879     0.18600
C318        C  0.66086648  0.40851771  0.41133949    -0.19400
C319        C  0.55106072  0.40892877  0.36529352    -0.20700
C320        C  0.47784049  0.40634778  0.36062353    -0.19300
C321        C  0.43848240  0.40085180  0.39880477     0.19900
C322        C  0.47167255  0.39861378  0.44341525     0.02100
C323        C  0.42821627  0.39320998  0.48063833    -0.14000
C324        C  0.35895072  0.38769691  0.47266420    -0.11700
C325        C  0.33082337  0.38792844  0.42773595     0.01600
C326        C  0.36809058  0.39604345  0.39174689    -0.23900
H327        H  0.68984498  0.39942074  0.52620462     0.09600
H328        H  0.56201758  0.39433684  0.52233441     0.13200
H329        H  0.68919997  0.41298775  0.38092181     0.11900
H330        H  0.58055077  0.41289230  0.33490745     0.13100
H331        H  0.45255028  0.40809934  0.32664555     0.12100
H332        H  0.44821474  0.39190844  0.51564042     0.09200
H333        H  0.33090783  0.38143832  0.50104465     0.12500
H334        H  0.34582717  0.39642919  0.35703578     0.14300
C335        C  0.14546779  0.34102606  0.44113847    -0.01200
C336        C  0.15328871  0.33243097  0.48598866    -0.09200
C337        C  0.12785475  0.31362166  0.49698303    -0.18000
C338        C  0.09740646  0.30230709  0.46251617     0.04400
C339        C  0.08561439  0.31202015  0.41797909     0.18600
C340        C  0.10591747  0.33170727  0.40863592    -0.19400
C341        C  0.05993955  0.30114560  0.38168827    -0.20700
C342        C  0.04931385  0.28024531  0.38794618    -0.19300
C343        C  0.06039829  0.27015658  0.43123938     0.19900
C344        C  0.08192060  0.28126198  0.46962604     0.02100
C345        C  0.08690700  0.27073580  0.51312670    -0.14000
C346        C  0.06624419  0.25077103  0.51856481    -0.11700
C347        C  0.04320420  0.24019274  0.48052342     0.01600
C348        C  0.04649517  0.24934360  0.43657962    -0.23900
H349        H  0.18555962  0.33892013  0.51135797     0.09600
H350        H  0.13863501  0.30731173  0.53155952     0.13200
H351        H  0.10035186  0.33823107  0.37375248     0.11900
H352        H  0.05105414  0.30848559  0.34765472     0.13100
H353        H  0.03116962  0.27203302  0.35882281     0.12100
H354        H  0.10200684  0.27818426  0.54400923     0.09200
H355        H  0.06357674  0.24446634  0.55318332     0.12500
H356        H  0.03191090  0.24105217  0.40648860     0.14300
loop_ 
_geom_bond_atom_site_label_1 
_geom_bond_atom_site_label_2 
_geom_bond_distance 
_geom_bond_site_symmetry_2 
_ccdc_geom_bond_type 
N1            C5   1.361       .  A
N1            C2   1.358       .  A
N1           C32   1.439       .  S
C2            C3   1.382       .  A
C2          C325   1.477       .  S
C3            C4   1.364       .  A
C3            H6   1.083       .  S
C4            C5   1.384       .  A
C4            H7   1.083       .  S
C5          C335   1.480       .  S
N8           C12   1.376       .  A
N8            C9   1.367       .  A
N8          C291   1.457       .  S
C9           C10   1.378       .  A
C9          C269   1.482       .  S
C10          C11   1.360       .  A
C10          H13   1.082       .  S
C11          C12   1.383       .  A
C11          H14   1.083       .  S
C12          C34   1.484       .  S
N15          C19   1.354       .  A
N15          C16   1.359       .  A
N15          C33   1.438   1_655  S
C16          C17   1.383       .  A
C16         C281   1.481       .  S
C17          C18   1.368       .  A
C17          H20   1.082       .  S
C18          C19   1.382       .  A
C18          H21   1.083       .  S
C19         C247   1.475   1_655  S
O22         Cu30   2.023       .  S
O22          C32   1.281       .  A
O23         Cu30   2.020       .  S
O23          C33   1.278       .  A
O24         Cu30   2.018       .  S
O24          C34   1.272       .  A
O25         Cu30   2.002       .  S
O25          C35   1.280   1_455  A
O26         Cu31   2.024   1_655  S
O26          C35   1.276       .  A
O27         Cu31   2.032       .  S
O27          C34   1.286       .  A
O28         Cu31   2.011       .  S
O28          C33   1.278       .  A
O29         Cu31   2.015       .  S
O29          C32   1.275       .  A
Cu30        Cu31   2.371       .  S
C35          C40   1.475       .  S
N36          C40   1.365       .  A
N36          C37   1.359       .  A
N36         C225   1.446       .  S
C37          C38   1.377       .  A
C37         C313   1.470       .  S
C38          C39   1.363       .  A
C38          H41   1.082       .  S
C39          C40   1.385       .  A
C39          H42   1.083       .  S
C43          C44   1.547       .  S
C43          C49   1.539       .  S
C43          C47   1.555       .  S
C43         C193   1.550       .  S
C44          H51   1.086   1_655  S
C44          C45   1.374       .  D
C45          C46   1.537       .  S
C45         C347   1.497   1_655  S
C46          C50   1.547       .  S
C46          C48   1.542       .  S
C46          H52   1.099       .  S
C47          H53   1.083       .  S
C47          C48   1.378       .  D
C48         C237   1.515       .  S
C49          H54   1.083       .  S
C49          C50   1.366       .  D
C50         C203   1.516       .  S
C55          C56   1.539       .  S
C55          C61   1.526       .  S
C55          C59   1.552       .  S
C55         C137   1.548       .  S
C56          H63   1.087       .  S
C56          C57   1.369       .  D
C57          C58   1.541       .  S
C57         C259   1.495       .  S
C58          C62   1.571       .  S
C58          C60   1.556       .  S
C58          H64   1.108       .  S
C59          H65   1.083       .  S
C59          C60   1.381       .  D
C60         C303   1.533       .  S
C61          H66   1.082       .  S
C61          C62   1.370       .  D
C62         C159   1.517       .  S
N67          C71   1.352       .  A
N67          N68   1.324       .  A
N67         Cu75   2.114       .  S
N68          C69   1.352       .  A
N68         Cu74   2.110       .  S
C69          C70   1.394       .  A
C69          H72   1.081       .  S
C70          C71   1.395       .  A
C70         C181   1.508       .  S
C71          H73   1.081       .  S
Cu74         N77   2.110   1_556  S
Cu75         N85   2.114       .  S
Cu76         N78   2.103       .  S
Cu76         N84   2.103       .  S
N77          C81   1.353       .  A
N77          N78   1.323       .  A
N78          C79   1.349       .  A
C79          C80   1.393       .  A
C79          H82   1.081       .  S
C80          C81   1.396       .  A
C80         C215   1.506       .  S
C81          H83   1.081       .  S
N84          C88   1.352       .  A
N84          N85   1.323   1_554  A
N85          C86   1.352       .  A
C86          C87   1.397   1_556  A
C86          H89   1.081       .  S
C87          C88   1.395       .  A
C87         C127   1.510   1_545  S
C88          H90   1.081       .  S
N91          C95   1.350       .  A
N91          N92   1.323       .  A
N91         Cu99   2.098       .  S
N92          C93   1.352       .  A
N92         Cu98   2.113   1_556  S
C93          C94   1.396       .  A
C93          H96   1.081       .  S
C94          C95   1.393       .  A
C94         C149   1.507       .  S
C95          H97   1.081       .  S
Cu98        N101   2.114       .  S
Cu99        N109   2.098   1_556  S
Cu100       N102   2.133       .  S
Cu100       N108   2.132       .  S
N101        C105   1.354       .  A
N101        N102   1.326       .  A
N102        C103   1.354       .  A
C103        C104   1.398       .  A
C103        H106   1.081       .  S
C104        C105   1.394       .  A
C104        C171   1.513       .  S
C105        H107   1.081       .  S
N108        C112   1.356       .  A
N108        N109   1.324       .  A
N109        C110   1.349   1_554  A
C110        C111   1.393   1_556  A
C110        H113   1.081       .  S
C111        C112   1.400       .  A
C111        C115   1.513       .  S
C112        H114   1.081       .  S
C115        C116   1.408   1_554  A
C115        C120   1.410       .  A
C116        C117   1.405       .  A
C116        H129   1.081       .  S
C117        C118   1.415   1_556  A
C117        H130   1.077       .  S
C118        C124   1.444       .  A
C118        C119   1.423       .  A
C119        C121   1.402       .  A
C119        C120   1.419       .  A
C120        H131   1.083       .  S
C121        C122   1.395       .  A
C121        H132   1.084       .  S
C122        C123   1.402       .  A
C122        H133   1.084       .  S
C123        C124   1.422       .  A
C123        C128   1.417       .  A
C124        C125   1.416   1_554  A
C125        C126   1.405       .  A
C125        H134   1.077       .  S
C126        C127   1.406   1_456  A
C126        H135   1.081       .  S
C127        C128   1.410   1_655  A
C128        H136   1.082   1_455  S
C137        C138   1.409       .  A
C137        C142   1.411       .  A
C138        C139   1.401       .  A
C138        H151   1.083       .  S
C139        C140   1.413       .  A
C139        H152   1.076       .  S
C140        C146   1.441       .  A
C140        C141   1.423       .  A
C141        C143   1.401       .  A
C141        C142   1.418       .  A
C142        H153   1.078       .  S
C143        C144   1.395       .  A
C143        H154   1.083       .  S
C144        C145   1.402       .  A
C144        H155   1.084       .  S
C145        C146   1.421       .  A
C145        C150   1.415       .  A
C146        C147   1.417       .  A
C147        C148   1.405       .  A
C147        H156   1.076       .  S
C148        C149   1.405       .  A
C148        H157   1.082       .  S
C149        C150   1.409       .  A
C150        H158   1.082       .  S
C159        C160   1.408       .  A
C159        C164   1.409       .  A
C160        C161   1.401       .  A
C160        H173   1.083       .  S
C161        C162   1.413       .  A
C161        H174   1.078       .  S
C162        C168   1.445       .  A
C162        C163   1.426       .  A
C163        C165   1.403       .  A
C163        C164   1.426       .  A
C164        H175   1.084       .  S
C165        C166   1.400       .  A
C165        H176   1.084       .  S
C166        C167   1.404       .  A
C166        H177   1.083       .  S
C167        C168   1.422       .  A
C167        C172   1.422       .  A
C168        C169   1.418       .  A
C169        C170   1.406       .  A
C169        H178   1.078       .  S
C170        C171   1.405       .  A
C170        H179   1.082       .  S
C171        C172   1.413       .  A
C172        H180   1.083       .  S
C181        C182   1.406       .  A
C181        C186   1.409       .  A
C182        C183   1.406       .  A
C182        H195   1.082       .  S
C183        C184   1.416       .  A
C183        H196   1.079       .  S
C184        C190   1.442       .  A
C184        C185   1.422       .  A
C185        C187   1.401       .  A
C185        C186   1.415       .  A
C186        H197   1.083       .  S
C187        C188   1.394       .  A
C187        H198   1.084       .  S
C188        C189   1.401       .  A
C188        H199   1.084       .  S
C189        C190   1.422       .  A
C189        C194   1.416       .  A
C190        C191   1.414       .  A
C191        C192   1.404       .  A
C191        H200   1.079       .  S
C192        C193   1.410       .  A
C192        H201   1.081       .  S
C193        C194   1.411       .  A
C194        H202   1.082       .  S
C203        C204   1.408       .  A
C203        C208   1.410       .  A
C204        C205   1.407       .  A
C204        H217   1.081       .  S
C205        C206   1.416       .  A
C205        H218   1.078       .  S
C206        C212   1.443       .  A
C206        C207   1.422       .  A
C207        C209   1.400       .  A
C207        C208   1.412       .  A
C208        H219   1.082       .  S
C209        C210   1.391       .  A
C209        H220   1.084       .  S
C210        C211   1.400       .  A
C210        H221   1.084       .  S
C211        C212   1.422       .  A
C211        C216   1.412       .  A
C212        C213   1.417       .  A
C213        C214   1.408       .  A
C213        H222   1.078       .  S
C214        C215   1.406       .  A
C214        H223   1.082       .  S
C215        C216   1.407       .  A
C216        H224   1.082       .  S
C225        C226   1.399       .  A
C225        C230   1.403       .  A
C226        C227   1.408       .  A
C226        H239   1.083       .  S
C227        C228   1.420       .  A
C227        H240   1.077       .  S
C228        C234   1.441       .  A
C228        C229   1.423       .  A
C229        C231   1.400       .  A
C229        C230   1.409       .  A
C230        H241   1.084       .  S
C231        C232   1.391       .  A
C231        H242   1.084       .  S
C232        C233   1.400       .  A
C232        H243   1.084       .  S
C233        C234   1.422       .  A
C233        C238   1.412       .  A
C234        C235   1.415       .  A
C235        C236   1.405       .  A
C235        H244   1.077       .  S
C236        C237   1.409       .  A
C236        H245   1.081       .  S
C237        C238   1.408       .  A
C238        H246   1.082       .  S
C247        C248   1.398       .  A
C247        C252   1.406       .  A
C248        C249   1.389       .  A
C248        H261   1.084       .  S
C249        C250   1.411       .  A
C249        H262   1.080       .  S
C250        C256   1.417       .  A
C250        C251   1.415       .  A
C251        C253   1.403       .  A
C251        C252   1.407       .  A
C252        H263   1.084   1_455  S
C253        C254   1.398       .  A
C253        H264   1.084   1_455  S
C254        C255   1.402       .  A
C254        H265   1.083       .  S
C255        C256   1.420       .  A
C255        C260   1.412       .  A
C256        C257   1.403       .  A
C257        C258   1.382       .  A
C257        H266   1.079       .  S
C258        C259   1.409       .  A
C258        H267   1.081       .  S
C259        C260   1.405       .  A
C260        H268   1.084       .  S
C269        C270   1.400       .  A
C269        C274   1.401       .  A
C270        C271   1.392       .  A
C270        H283   1.084       .  S
C271        C272   1.412       .  A
C271        H284   1.077       .  S
C272        C278   1.430       .  A
C272        C273   1.424       .  A
C273        C275   1.400       .  A
C273        C274   1.412       .  A
C274        H285   1.084       .  S
C275        C276   1.394       .  A
C275        H286   1.084       .  S
C276        C277   1.401       .  A
C276        H287   1.083       .  S
C277        C278   1.422       .  A
C277        C282   1.411       .  A
C278        C279   1.415       .  A
C279        C280   1.394       .  A
C279        H288   1.076       .  S
C280        C281   1.399       .  A
C280        H289   1.084       .  S
C281        C282   1.403       .  A
C282        H290   1.084       .  S
C291        C292   1.404       .  A
C291        C296   1.405       .  A
C292        C293   1.414       .  A
C292        H305   1.082       .  S
C293        C294   1.421       .  A
C293        H306   1.078       .  S
C294        C300   1.448       .  A
C294        C295   1.423       .  A
C295        C297   1.399       .  A
C295        C296   1.412       .  A
C296        H307   1.084       .  S
C297        C298   1.391       .  A
C297        H308   1.084       .  S
C298        C299   1.401       .  A
C298        H309   1.084       .  S
C299        C300   1.422       .  A
C299        C304   1.414       .  A
C300        C301   1.417       .  A
C301        C302   1.413       .  A
C301        H310   1.078       .  S
C302        C303   1.411       .  A
C302        H311   1.081       .  S
C303        C304   1.414       .  A
C304        H312   1.080       .  S
C313        C314   1.398       .  A
C313        C318   1.394       .  A
C314        C315   1.401       .  A
C314        H327   1.084       .  S
C315        C316   1.418       .  A
C315        H328   1.077       .  S
C316        C322   1.430       .  A
C316        C317   1.423       .  A
C317        C319   1.397       .  A
C317        C318   1.396       .  A
C318        H329   1.085       .  S
C319        C320   1.384       .  A
C319        H330   1.084       .  S
C320        C321   1.397       .  A
C320        H331   1.083       .  S
C321        C322   1.422       .  A
C321        C326   1.397       .  A
C322        C323   1.417       .  A
C323        C324   1.402       .  A
C323        H332   1.076       .  S
C324        C325   1.400       .  A
C324        H333   1.084       .  S
C325        C326   1.397       .  A
C326        H334   1.085       .  S
C335        C336   1.401       .  A
C335        C340   1.400       .  A
C336        C337   1.404       .  A
C336        H349   1.082       .  S
C337        C338   1.417       .  A
C337        H350   1.078       .  S
C338        C344   1.432       .  A
C338        C339   1.421       .  A
C339        C341   1.398       .  A
C339        C340   1.399       .  A
C340        H351   1.086       .  S
C341        C342   1.386       .  A
C341        H352   1.084       .  S
C342        C343   1.398       .  A
C342        H353   1.084       .  S
C343        C344   1.421       .  A
C343        C348   1.400       .  A
C344        C345   1.415       .  A
C345        C346   1.402       .  A
C345        H354   1.078       .  S
C346        C347   1.406       .  A
C346        H355   1.082       .  S
C347        C348   1.402       .  A
C348        H356   1.084       .  S
