geometry optimzed in LAMMPS
_audit_creation_date              2020-12-01 
_audit_creation_method            'lammps2cif' 
_symmetry_space_group_name_H-M    'P1' 
_symmetry_Int_Tables_number       1 
_symmetry_cell_setting            triclinic 
loop_ 
_symmetry_equiv_pos_as_xyz 
  x,y,z 
_cell_length_a                    29.01364686 
_cell_length_b                    28.343548190990973 
_cell_length_c                    36.078278960140274 
_cell_angle_alpha                 89.92420291984396 
_cell_angle_beta                  89.9966323624957 
_cell_angle_gamma                 87.36356190481975 
loop_ 
_atom_site_label 
_atom_site_type_symbol 
_atom_site_fract_x 
_atom_site_fract_y 
_atom_site_fract_z 
_atom_site_charge 
C1          C  0.72681098  0.02818291  0.87509621     0.03900
C2          C  0.73033121  0.99950898  0.90735920    -0.12200
C3          C  0.69182768  0.99368288  0.93038643     0.01400
C4          C  0.64882293  0.01206680  0.91755280    -0.10700
C5          C  0.64531714  0.04502822  0.88865307     0.03900
C6          C  0.68428840  0.05236649  0.86684456    -0.10200
H7          H  0.76287557  0.98230190  0.91512260     0.09500
H8          H  0.61783904  0.00765100  0.93342413     0.07100
H9          H  0.68200796  0.07790517  0.84447485     0.06900
C10         C  0.52002754  0.07438727  0.88728832     0.03900
C11         C  0.51806643  0.08638509  0.92516519    -0.12200
C12         C  0.55841458  0.09698824  0.94454801     0.01400
C13         C  0.59829418  0.10331295  0.92303433    -0.10700
C14         C  0.60375098  0.07797869  0.88970389     0.03900
C15         C  0.56364840  0.06673839  0.87035881    -0.10200
H16         H  0.48576218  0.08346027  0.93977238     0.09500
H17         H  0.62925276  0.11484475  0.93631596     0.07100
H18         H  0.56653913  0.04775609  0.84435799     0.06900
In19       In  0.13085027  0.05462697  0.70965724     1.36900
C20         C  0.21115641  0.07004104  0.74319608     0.78400
O21         O  0.16916912  0.02051682  0.66236193    -0.60100
O22         O  0.12504406  0.97816195  0.69389382    -0.51000
C23         C  0.05866597  0.04422866  0.75492622     0.71100
O24         O  0.05449124  0.04906632  0.72040125    -0.45800
C25         C  0.10850713  0.12696284  0.66526805     0.75800
O26         O  0.19623037  0.02929936  0.73914007    -0.57700
O27         O  0.11810690  0.13207470  0.69909255    -0.47800
O28         O  0.18430621  0.10285405  0.73144154    -0.54100
C29         C  0.15304763  0.98050516  0.66722298     0.85900
O30         O  0.09968235  0.04409946  0.76627560    -0.56000
O31         O  0.10865304  0.08473036  0.65448255    -0.59300
C32         C  0.19675375  0.65004334  0.53740494     0.03900
C33         C  0.18777591  0.60405294  0.54911576    -0.12200
C34         C  0.19629246  0.56589587  0.52521882     0.01400
C35         C  0.22057100  0.57377224  0.49226258    -0.10700
C36         C  0.21565746  0.61870008  0.47555956     0.03900
C37         C  0.20803453  0.65747758  0.49975086    -0.10200
H38         H  0.16986191  0.59859934  0.57502991     0.09500
H39         H  0.22994769  0.54321292  0.47551303     0.07100
H40         H  0.20528122  0.69298754  0.48886679     0.06900
C41         C  0.13344103  0.45141613  0.53212611     0.03900
C42         C  0.16277259  0.48764555  0.54209049    -0.12200
C43         C  0.16093069  0.53002914  0.52242568     0.02400
C44         C  0.12849245  0.53679019  0.49410598    -0.10700
C45         C  0.10491164  0.49901035  0.47920433     0.03900
C46         C  0.10598200  0.45659555  0.49968929    -0.10200
H47         H  0.18734212  0.48262758  0.56453413     0.09500
H48         H  0.12773120  0.57068140  0.48051436     0.07100
H49         H  0.08734592  0.42725385  0.48937361     0.06900
C50         C  0.16580276  0.67245857  0.38633867     0.03900
C51         C  0.13966925  0.63435188  0.37447458    -0.12200
C52         C  0.14695250  0.58985282  0.39081956     0.01400
C53         C  0.18078209  0.58366908  0.41834745    -0.10700
C54         C  0.20103902  0.62245827  0.43528937     0.03900
C55         C  0.19549170  0.66637074  0.41716041    -0.10200
H56         H  0.11231399  0.63958933  0.35429342     0.09500
H57         H  0.18441774  0.54882271  0.43030846     0.07100
H58         H  0.21257579  0.69662638  0.42788199     0.06900
C59         C  0.11048019  0.46754302  0.37823860     0.03900
C60         C  0.12185178  0.51284441  0.36594957    -0.12200
C61         C  0.11290119  0.55233208  0.38870042     0.01400
C62         C  0.08753945  0.54604089  0.42131861    -0.10700
C63         C  0.09093065  0.50160646  0.43892429     0.03900
C64         C  0.09824634  0.46186145  0.41586958    -0.10200
H65         H  0.14040683  0.51686856  0.34015607     0.09500
H66         H  0.07829065  0.57720782  0.43747235     0.07100
H67         H  0.09966781  0.42685370  0.42778746     0.06900
In68       In  0.12482772  0.06548496  0.19738264     1.36900
C69         C  0.20839756  0.08081111  0.17051692     0.78400
O70         O  0.11011321  0.09436689  0.25456854    -0.60100
O71         O  0.11752904  0.14302343  0.21063140    -0.51000
C72         C  0.05339012  0.06050014  0.15143240     0.71100
O73         O  0.09463181  0.05670040  0.14079756    -0.45800
C74         C  0.12776771  0.97747094  0.22292893     0.75800
O75         O  0.17234141  0.10270116  0.15945138    -0.57700
O76         O  0.12867118  0.01289560  0.24403988    -0.47800
O77         O  0.20212679  0.05138720  0.19601265    -0.54100
C78         C  0.11089493  0.13696940  0.24478719     0.85900
O79         O  0.04834494  0.06865693  0.18558516    -0.56000
O80         O  0.12604034  0.98712432  0.18885472    -0.59300
C81         C  0.73239747  0.00379612  0.02939958     0.03900
C82         C  0.68812114  0.00852237  0.04526850    -0.12200
C83         C  0.64949548  0.99638573  0.02496844     0.01400
C84         C  0.65674238  0.97179291  0.99157886    -0.10700
C85         C  0.69671864  0.98039405  0.97088859     0.03900
C86         C  0.73608501  0.99279688  0.99116171    -0.10200
H87         H  0.68321856  0.02616315  0.07171448     0.09500
H88         H  0.62662331  0.95928769  0.97766865     0.07100
H89         H  0.76783369  0.99872261  0.97667675     0.06900
C90         C  0.52927169  0.05142197  0.04151541     0.03900
C91         C  0.52540236  0.07939919  0.00887188    -0.12200
C92         C  0.56352735  0.08361000  0.98497849     0.01400
C93         C  0.60595425  0.06298944  0.99682186    -0.10700
C94         C  0.60853852  0.02957061  0.02533258     0.03900
C95         C  0.57045294  0.02445283  0.04830991    -0.10200
H96         H  0.49241856  0.09572356  0.00113095     0.09500
H97         H  0.63683925  0.06643639  0.98065823     0.07100
H98         H  0.57259045  0.99913067  0.07084271     0.06900
C99         C  0.93208804  0.04365245  0.11214901     0.19500
C100        C  0.88793093  0.06260953  0.12063466    -0.18600
C101        C  0.85029585  0.05338052  0.09805023    -0.10900
C102        C  0.85585295  0.02370558  0.06686308     0.21800
C103        C  0.90018212  0.00482884  0.05840373    -0.20200
C104        C  0.93790138  0.01449322  0.08080258    -0.11000
C105        C  0.81671889  0.01148466  0.04247311    -0.15200
C106        C  0.77209414  0.01763186  0.05242137    -0.29100
C107        C  0.97091798  0.05363261  0.13726069    -0.03300
C108        C  0.01487655  0.05401756  0.12569767    -0.39900
H109        H  0.88263411  0.08519001  0.14460971     0.12900
H110        H  0.81731842  0.07013759  0.10517984     0.12500
H111        H  0.90557829  0.98191122  0.03463673     0.12000
H112        H  0.97123734  0.99815332  0.07394984     0.12200
H113        H  0.82544963  0.99464681  0.01627967     0.15000
H114        H  0.76366626  0.03134066  0.07971482     0.13700
H115        H  0.96293597  0.06166233  0.16607107     0.11400
H116        H  0.02335173  0.04811006  0.09673158     0.13400
C117        C  0.41490715  0.07289225  0.09607118     0.19500
C118        C  0.38766473  0.11341591  0.10511795    -0.18600
C119        C  0.34838882  0.11022284  0.12717285    -0.10900
C120        C  0.33512104  0.06613826  0.14031921     0.21800
C121        C  0.36320694  0.02578227  0.13253161    -0.20200
C122        C  0.40249063  0.02892921  0.11033085    -0.11000
C123        C  0.29126466  0.06095092  0.16076299    -0.15200
C124        C  0.25362442  0.08903869  0.15396939    -0.29100
C125        C  0.45449320  0.07798738  0.07041586    -0.03300
C126        C  0.48979449  0.04575892  0.06713110    -0.39900
H127        H  0.39657014  0.14772592  0.09477187     0.12900
H128        H  0.32834576  0.14228971  0.13363918     0.12500
H129        H  0.35371347  0.99145281  0.14241883     0.12000
H130        H  0.42185409  0.99662129  0.10349896     0.12200
H131        H  0.28857324  0.03083189  0.17920338     0.15000
H132        H  0.25485542  0.11713228  0.13356603     0.13700
H133        H  0.45523085  0.11061566  0.05469485     0.11400
H134        H  0.49138482  0.01510686  0.08518155     0.13400
C135        C  0.10780921  0.26231757  0.28702984     0.19500
C136        C  0.12586979  0.30494301  0.27529429    -0.18600
C137        C  0.12348155  0.34492457  0.29800875    -0.10900
C138        C  0.10270598  0.34325187  0.33323124     0.21800
C139        C  0.08449643  0.30059264  0.34491177    -0.20200
C140        C  0.08692059  0.26058818  0.32218110    -0.11000
C141        C  0.09739365  0.38512295  0.35813231    -0.15200
C142        C  0.11832723  0.42625933  0.35317603    -0.29100
C143        C  0.11045459  0.22132103  0.26122090    -0.03300
C144        C  0.10530438  0.17619618  0.27151296    -0.39900
H145        H  0.14178961  0.30743477  0.24823694     0.12900
H146        H  0.13716552  0.37697340  0.28726437     0.12500
H147        H  0.06786572  0.29827484  0.37170348     0.12000
H148        H  0.07147761  0.22895867  0.33206073     0.12200
H149        H  0.07427046  0.38180492  0.38155292     0.15000
H150        H  0.14071752  0.43093245  0.32956568     0.13700
H151        H  0.11886767  0.22852017  0.23245408     0.11400
H152        H  0.09893976  0.16713752  0.30019650     0.13400
C153        C  0.13268491  0.86891055  0.28796721     0.19500
C154        C  0.12767808  0.86296346  0.32638020    -0.18600
C155        C  0.13041303  0.81793076  0.34229197    -0.10900
C156        C  0.13859083  0.77768306  0.32004717     0.21800
C157        C  0.14261478  0.78341591  0.28161350    -0.20200
C158        C  0.14014016  0.82844808  0.26568982    -0.11000
C159        C  0.14290763  0.72931761  0.33594610    -0.15200
C160        C  0.15918711  0.72060977  0.37032557    -0.29100
C161        C  0.13105158  0.91784668  0.27276500    -0.03300
C162        C  0.12867470  0.92839426  0.23642860    -0.39900
H163        H  0.12165112  0.89334053  0.34422514     0.12900
H164        H  0.12568176  0.81481233  0.37192547     0.12500
H165        H  0.14875898  0.75294500  0.26388690     0.12000
H166        H  0.14499444  0.83092832  0.23610212     0.12200
H167        H  0.13553817  0.70002254  0.31786757     0.15000
H168        H  0.17066208  0.74979796  0.38688778     0.13700
H169        H  0.13150977  0.94671160  0.29256052     0.11400
H170        H  0.12686794  0.90102434  0.21566092     0.13400
C171        C  0.19044616  0.77377545  0.58328801     0.19500
C172        C  0.20089569  0.81885135  0.57066629    -0.18600
C173        C  0.18839195  0.85907446  0.59129961    -0.10900
C174        C  0.16563552  0.85509457  0.62558964     0.21800
C175        C  0.15555507  0.80993624  0.63838884    -0.20200
C176        C  0.16798076  0.76967021  0.61767659    -0.11000
C177        C  0.15132929  0.89678891  0.64864896    -0.15200
C178        C  0.16681630  0.94026262  0.64334135    -0.29100
C179        C  0.20349544  0.73247219  0.55950676    -0.03300
C180        C  0.18510424  0.68993589  0.56280930    -0.39900
H181        H  0.21810769  0.82309064  0.54430067     0.12900
H182        H  0.19602180  0.89294731  0.57965508     0.12500
H183        H  0.13824195  0.80572713  0.66471192     0.12000
H184        H  0.16032961  0.73567199  0.62912508     0.12200
H185        H  0.12798994  0.89118049  0.67165397     0.15000
H186        H  0.19143039  0.94709102  0.62165449     0.13700
H187        H  0.22831296  0.73794432  0.53755779     0.11400
H188        H  0.16062224  0.68356035  0.58472616     0.13400
C189        C  0.10452537  0.25278055  0.62502679     0.19500
C190        C  0.12552233  0.29385249  0.63659843    -0.18600
C191        C  0.12555013  0.33362411  0.61379725    -0.10900
C192        C  0.10447036  0.33319201  0.57871675     0.21800
C193        C  0.08256428  0.29253643  0.56737297    -0.20200
C194        C  0.08264757  0.25258354  0.59018453    -0.11000
C195        C  0.10279699  0.37527583  0.55420895    -0.15200
C196        C  0.13538640  0.40759857  0.55476481    -0.29100
C197        C  0.10629848  0.21148570  0.65043272    -0.03300
C198        C  0.09970989  0.16690855  0.63972403    -0.39900
H199        H  0.14210475  0.29519151  0.66346098     0.12900
H200        H  0.14120032  0.36489059  0.62418862     0.12500
H201        H  0.06538161  0.29168551  0.54073599     0.12000
H202        H  0.06493364  0.22218963  0.58057477     0.12200
H203        H  0.07377552  0.37924452  0.53536876     0.15000
H204        H  0.16452790  0.40255866  0.57344777     0.13700
H205        H  0.11673075  0.21767296  0.67889765     0.11400
H206        H  0.09140604  0.15876528  0.61122264     0.13400
C207        C  0.42158607  0.06459739  0.81617608     0.19500
C208        C  0.40244822  0.09706978  0.79040986    -0.18600
C209        C  0.35842833  0.09113933  0.77558746    -0.10900
C210        C  0.33296130  0.05206848  0.78590315     0.21800
C211        C  0.35305083  0.01860431  0.81043165    -0.20200
C212        C  0.39669236  0.02490198  0.82563268    -0.11000
C213        C  0.28622959  0.04408891  0.77072001    -0.15200
C214        C  0.25670707  0.07919831  0.75936392    -0.29100
C215        C  0.46732390  0.07288342  0.83299927    -0.03300
C216        C  0.47677287  0.06190105  0.86857437    -0.39900
H217        H  0.42124931  0.12756576  0.78227072     0.12900
H218        H  0.34479855  0.11680850  0.75574704     0.12500
H219        H  0.33460856  0.98775042  0.81827342     0.12000
H220        H  0.41105702  0.99847994  0.84458446     0.12200
H221        H  0.27521146  0.00796311  0.76989352     0.15000
H222        H  0.26610787  0.11571147  0.76147508     0.13700
H223        H  0.49213549  0.09199876  0.81697022     0.11400
H224        H  0.45001611  0.04740477  0.88567097     0.13400
C225        C  0.93369085  0.03839940  0.79282454     0.19500
C226        C  0.88970447  0.04157125  0.77640966    -0.18600
C227        C  0.84964652  0.03882487  0.79785774    -0.10900
C228        C  0.85257822  0.03304903  0.83658601     0.21800
C229        C  0.89653419  0.02993497  0.85297378    -0.20200
C230        C  0.93653083  0.03255405  0.83155501    -0.11000
C231        C  0.81146550  0.02831909  0.86104105    -0.15200
C232        C  0.76706622  0.03505286  0.85017856    -0.29100
C233        C  0.97512733  0.04144862  0.76839689    -0.03300
C234        C  0.01922297  0.03953222  0.78039697    -0.39900
H235        H  0.88624381  0.04593780  0.74668444     0.12900
H236        H  0.81685387  0.04058809  0.78366873     0.12500
H237        H  0.90006200  0.02522233  0.88266561     0.12000
H238        H  0.96921686  0.02981281  0.84582266     0.12200
H239        H  0.81869543  0.01962270  0.88978926     0.15000
H240        H  0.75926925  0.04727166  0.82232287     0.13700
H241        H  0.96892671  0.04601333  0.73886792     0.11400
H242        H  0.02743648  0.03521614  0.80947352     0.13400
loop_ 
_geom_bond_atom_site_label_1 
_geom_bond_atom_site_label_2 
_geom_bond_distance 
_geom_bond_site_symmetry_2 
_ccdc_geom_bond_type 
C1            C2   1.420   1_545  A
C1            C6   1.415       .  A
C1          C232   1.493       .  S
C2            C3   1.408       .  A
C2            H7   1.079       .  S
C3            C4   1.408   1_565  A
C3           C85   1.514       .  S
C4            C5   1.400       .  A
C4            H8   1.078       .  S
C5            C6   1.401       .  A
C5           C14   1.491       .  S
C6            H9   1.083       .  S
C10          C11   1.409       .  A
C10          C15   1.413       .  A
C10         C216   1.482       .  S
C11          C12   1.408       .  A
C11          H16   1.082       .  S
C12          C13   1.411       .  A
C12          C92   1.512       .  S
C13          C14   1.407       .  A
C13          H17   1.082       .  S
C14          C15   1.406       .  A
C15          H18   1.083       .  S
In19         O21   2.233       .  S
In19         O22   2.255   1_545  S
In19         O30   2.259       .  S
In19         O24   2.262       .  S
In19         O26   2.262       .  S
In19         O27   2.241       .  S
In19         O28   2.256       .  S
In19         O31   2.247       .  S
C20         C214   1.479       .  S
C20          O26   1.261       .  A
C20          O28   1.259       .  A
O21          C29   1.259   1_545  A
O22          C29   1.263       .  A
C23         C234   1.478       .  S
C23          O30   1.258       .  A
C23          O24   1.258       .  A
C25         C198   1.472       .  S
C25          O27   1.262       .  A
C25          O31   1.259       .  A
C29         C178   1.471       .  S
C32          C33   1.405       .  A
C32          C37   1.415       .  A
C32         C180   1.483       .  S
C33          C34   1.397       .  A
C33          H38   1.084       .  S
C34          C35   1.405       .  A
C34          C43   1.481       .  S
C35          C36   1.409       .  A
C35          H39   1.081       .  S
C36          C37   1.414       .  A
C36          C54   1.516       .  S
C37          H40   1.079       .  S
C41          C42   1.410       .  A
C41          C46   1.419       .  A
C41         C196   1.484       .  S
C42          C43   1.393       .  A
C42          H47   1.084       .  S
C43          C44   1.396       .  A
C44          C45   1.405       .  A
C44          H48   1.077       .  S
C45          C46   1.409       .  A
C45          C63   1.510       .  S
C46          H49   1.079       .  S
C50          C51   1.415       .  A
C50          C55   1.412       .  A
C50         C160   1.486       .  S
C51          C52   1.399       .  A
C51          H56   1.082       .  S
C52          C53   1.402       .  A
C52          C61   1.487       .  S
C53          C54   1.410       .  A
C53          H57   1.078       .  S
C54          C55   1.408       .  A
C55          H58   1.082       .  S
C59          C60   1.411       .  A
C59          C64   1.414       .  A
C59         C142   1.489       .  S
C60          C61   1.403       .  A
C60          H65   1.084       .  S
C61          C62   1.403       .  A
C62          C63   1.409       .  A
C62          H66   1.082       .  S
C63          C64   1.409       .  A
C64          H67   1.080       .  S
In68         O70   2.254       .  S
In68         O71   2.250       .  S
In68         O79   2.257       .  S
In68         O73   2.240       .  S
In68         O75   2.240       .  S
In68         O76   2.246       .  S
In68         O77   2.260       .  S
In68         O80   2.241   1_545  S
C69         C124   1.470       .  S
C69          O75   1.256       .  A
C69          O77   1.260       .  A
O70          C78   1.259       .  A
O71          C78   1.260       .  A
C72         C108   1.471       .  S
C72          O79   1.261       .  A
C72          O73   1.257       .  A
C74         C162   1.472       .  S
C74          O76   1.262   1_565  A
C74          O80   1.260       .  A
C78         C144   1.476       .  S
C81          C82   1.407       .  A
C81          C86   1.418   1_544  A
C81         C106   1.488       .  S
C82          C83   1.395   1_545  A
C82          H87   1.084       .  S
C83          C84   1.404   1_554  A
C83          C94   1.481   1_565  S
C84          C85   1.410       .  A
C84          H88   1.082       .  S
C85          C86   1.414       .  A
C86          H89   1.079       .  S
C90          C91   1.420       .  A
C90          C95   1.410       .  A
C90         C126   1.486       .  S
C91          C92   1.412   1_554  A
C91          H96   1.080       .  S
C92          C93   1.405       .  A
C93          C94   1.397   1_556  A
C93          H97   1.077       .  S
C94          C95   1.394       .  A
C95          H98   1.084   1_545  S
C99         C100   1.400       .  A
C99         C104   1.407       .  A
C99         C107   1.483       .  S
C100        C101   1.397       .  A
C100        H109   1.083       .  S
C101        C102   1.410       .  A
C101        H110   1.080       .  S
C102        C103   1.404       .  A
C102        C105   1.490       .  S
C103        C104   1.398       .  A
C103        H111   1.083   1_545  S
C104        H112   1.082   1_545  S
C105        H113   1.084   1_545  S
C105        C106   1.347       .  D
C106        H114   1.083       .  S
C107        H115   1.087       .  S
C107        C108   1.342   1_655  D
C108        H116   1.085       .  S
C117        C118   1.403       .  A
C117        C122   1.410       .  A
C117        C125   1.487       .  S
C118        C119   1.396       .  A
C118        H127   1.083       .  S
C119        C120   1.406       .  A
C119        H128   1.082       .  S
C120        C121   1.402       .  A
C120        C123   1.484       .  S
C121        C122   1.399       .  A
C121        H129   1.083   1_545  S
C122        H130   1.081   1_545  S
C123        H131   1.087       .  S
C123        C124   1.344       .  D
C124        H132   1.085       .  S
C125        H133   1.085       .  S
C125        C126   1.346       .  D
C126        H134   1.084       .  S
C135        C136   1.404       .  A
C135        C140   1.407       .  A
C135        C143   1.489       .  S
C136        C137   1.398       .  A
C136        H145   1.084       .  S
C137        C138   1.408       .  A
C137        H146   1.079       .  S
C138        C139   1.406       .  A
C138        C141   1.492       .  S
C139        C140   1.399       .  A
C139        H147   1.084       .  S
C140        H148   1.081       .  S
C141        H149   1.086       .  S
C141        C142   1.351       .  D
C142        H150   1.083       .  S
C143        H151   1.087       .  S
C143        C144   1.346       .  D
C144        H152   1.084       .  S
C153        C154   1.404       .  A
C153        C158   1.410       .  A
C153        C161   1.490       .  S
C154        C155   1.398       .  A
C154        H163   1.084       .  S
C155        C156   1.407       .  A
C155        H164   1.082       .  S
C156        C157   1.401       .  A
C156        C159   1.485       .  S
C157        C158   1.398       .  A
C157        H165   1.084       .  S
C158        H166   1.079       .  S
C159        H167   1.086       .  S
C159        C160   1.346       .  D
C160        H168   1.086       .  S
C161        H169   1.087       .  S
C161        C162   1.345       .  D
C162        H170   1.082       .  S
C171        C172   1.402       .  A
C171        C176   1.409       .  A
C171        C179   1.487       .  S
C172        C173   1.396       .  A
C172        H181   1.083       .  S
C173        C174   1.409       .  A
C173        H182   1.080       .  S
C174        C175   1.404       .  A
C174        C177   1.489       .  S
C175        C176   1.398       .  A
C175        H183   1.083       .  S
C176        H184   1.080       .  S
C177        H185   1.087       .  S
C177        C178   1.344       .  D
C178        H186   1.083       .  S
C179        H187   1.086       .  S
C179        C180   1.346       .  D
C180        H188   1.083       .  S
C189        C190   1.403       .  A
C189        C194   1.408       .  A
C189        C197   1.485       .  S
C190        C191   1.395       .  A
C190        H199   1.084       .  S
C191        C192   1.406       .  A
C191        H200   1.082       .  S
C192        C193   1.403       .  A
C192        C195   1.483       .  S
C193        C194   1.399       .  A
C193        H201   1.083       .  S
C194        H202   1.081       .  S
C195        H203   1.084       .  S
C195        C196   1.347       .  D
C196        H204   1.086       .  S
C197        H205   1.087       .  S
C197        C198   1.344       .  D
C198        H206   1.084       .  S
C207        C208   1.404       .  A
C207        C212   1.406       .  A
C207        C215   1.488       .  S
C208        C209   1.402       .  A
C208        H217   1.083       .  S
C209        C210   1.409       .  A
C209        H218   1.082       .  S
C210        C211   1.403       .  A
C210        C213   1.489       .  S
C211        C212   1.399       .  A
C211        H219   1.083   1_545  S
C212        H220   1.083   1_545  S
C213        H221   1.087       .  S
C213        C214   1.346       .  D
C214        H222   1.085       .  S
C215        H223   1.087       .  S
C215        C216   1.346       .  D
C216        H224   1.087       .  S
C225        C226   1.406       .  A
C225        C230   1.409       .  A
C225        C233   1.496       .  S
C226        C227   1.401       .  A
C226        H235   1.084       .  S
C227        C228   1.409       .  A
C227        H236   1.080       .  S
C228        C229   1.405       .  A
C228        C231   1.495       .  S
C229        C230   1.399       .  A
C229        H237   1.084       .  S
C230        H238   1.079       .  S
C231        H239   1.084       .  S
C231        C232   1.352       .  D
C232        H240   1.083       .  S
C233        H241   1.087       .  S
C233        C234   1.349   1_655  D
C234        H242   1.081       .  S
