geometry optimzed in LAMMPS
_audit_creation_date              2020-11-30 
_audit_creation_method            'lammps2cif' 
_symmetry_space_group_name_H-M    'P1' 
_symmetry_Int_Tables_number       1 
_symmetry_cell_setting            triclinic 
loop_ 
_symmetry_equiv_pos_as_xyz 
  x,y,z 
_cell_length_a                    30.75345975 
_cell_length_b                    25.901070995362456 
_cell_length_c                    26.075487296160155 
_cell_angle_alpha                 93.33815194141441 
_cell_angle_beta                  90.1234928582196 
_cell_angle_gamma                 90.84419671827507 
loop_ 
_atom_site_label 
_atom_site_type_symbol 
_atom_site_fract_x 
_atom_site_fract_y 
_atom_site_fract_z 
_atom_site_charge 
In1        In  0.35002558  0.86294494  0.43262458     1.36900
C2          C  0.43626703  0.87298011  0.43431999     0.79500
O3          O  0.35892526  0.81391292  0.35960554    -0.59000
O4          O  0.32307264  0.88311677  0.35642560    -0.49900
C5          C  0.29641104  0.79758194  0.47647750     0.72100
O6          O  0.33688268  0.79816665  0.48476039    -0.44700
C7          C  0.33022126  0.94808705  0.48852998     0.76900
O8          O  0.41747590  0.83134982  0.44536765    -0.56600
O9          O  0.32565069  0.94418687  0.44030477    -0.46700
O10         O  0.41108514  0.90857046  0.42348843    -0.53000
C11         C  0.33904593  0.84435787  0.33210855     0.87000
O12         O  0.28398476  0.82858322  0.44410799    -0.54900
O13         O  0.34376320  0.90799225  0.50817791    -0.58200
In14       In  0.13317071  0.68774280  0.58138286     1.36900
C15         C  0.05089096  0.71273348  0.56373312     0.79500
O16         O  0.15910277  0.62102611  0.53223170    -0.59000
O17         O  0.11274312  0.60533615  0.58988298    -0.49900
C18         C  0.19128863  0.73838653  0.52679693     0.72100
O19         O  0.15161496  0.73502095  0.51501735    -0.44700
C20         C  0.14564709  0.70007010  0.68271255     0.76900
O21         O  0.07664576  0.74276153  0.58894750    -0.56600
O22         O  0.15591338  0.65963110  0.65670441    -0.46700
O23         O  0.06789327  0.67174909  0.54555158    -0.53000
C24         C  0.13638294  0.58758132  0.55377467     0.87000
O25         O  0.20130345  0.71643701  0.56696386    -0.54900
O26         O  0.13133264  0.73547457  0.65656109    -0.58200
In27       In  0.13867106  0.36631493  0.43199652     1.36900
C28         C  0.05339334  0.35038234  0.43384104     0.79500
O29         O  0.12553134  0.42914605  0.49266792    -0.59000
O30         O  0.17540078  0.44212494  0.43862301    -0.49900
C31         C  0.19057521  0.30909399  0.48646449     0.72100
O32         O  0.15013531  0.31075035  0.49318840    -0.44700
C33         C  0.14772094  0.34844465  0.33089000     0.76900
O34         O  0.07989960  0.31732623  0.44780216    -0.56600
O35         O  0.14835013  0.39314002  0.35260382    -0.46700
O36         O  0.07055974  0.39152534  0.41927580    -0.53000
C37         C  0.15379711  0.45990143  0.47645647     0.87000
O38         O  0.20469611  0.33681616  0.45176185    -0.54900
O39         O  0.14469992  0.31243971  0.36114352    -0.58200
In40       In  0.34048691  0.17760486  0.58600089     1.36900
C41         C  0.42660904  0.17446194  0.58690776     0.79500
O42         O  0.34644171  0.22832858  0.65868825    -0.59000
O43         O  0.31407923  0.15558986  0.66180675    -0.49900
C44         C  0.28964378  0.24264769  0.54008030     0.72100
O45         O  0.33038449  0.24297431  0.53505334    -0.44700
C46         C  0.32467790  0.09085181  0.52954289     0.76900
O47         O  0.40640678  0.21262220  0.57131338    -0.56600
O48         O  0.31765729  0.09474937  0.57727151    -0.46700
O49         O  0.40283523  0.13827335  0.60142801    -0.53000
C50         C  0.32849549  0.19578980  0.68616730     0.87000
O51         O  0.27489396  0.20985619  0.56981752    -0.54900
O52         O  0.33771944  0.13185599  0.51053733    -0.58200
In53       In  0.13275637  0.36305032  0.08626222     1.36900
C54         C  0.04699872  0.34272346  0.07978534     0.79500
O55         O  0.13537367  0.32870273  0.16385371    -0.59000
O56         O  0.14753647  0.40924042  0.15931221    -0.49900
C57         C  0.20010288  0.30821879  0.05080883     0.72100
O58         O  0.16134557  0.29704180  0.03782530    -0.44700
C59         C  0.14158946  0.44229992  0.02673726     0.76900
O60         O  0.07482529  0.30748757  0.07433132    -0.56600
O61         O  0.14474396  0.44707485  0.07499429    -0.46700
O62         O  0.06319682  0.38728733  0.08834404    -0.53000
C63         C  0.14425827  0.37154061  0.18745743     0.87000
O64         O  0.20407741  0.34589354  0.08323886    -0.54900
O65         O  0.13449101  0.39674078  0.00872111    -0.58200
In66       In  0.33938787  0.16584554  0.92777740     1.36900
C67         C  0.42549833  0.18208016  0.93057452     0.79500
O68         O  0.34062607  0.13116984  0.00440996    -0.59000
O69         O  0.32911422  0.08145288  0.93779187    -0.49900
C70         C  0.27256300  0.21810577  0.96776011     0.72100
O71         O  0.31156459  0.23137835  0.97765342    -0.44700
C72         C  0.32405512  0.16581382  0.82756946     0.76900
O73         O  0.39907781  0.21742794  0.94340479    -0.56600
O74         O  0.31873406  0.12639590  0.85308786    -0.46700
O75         O  0.40770339  0.13954643  0.91628159    -0.53000
C76         C  0.33344540  0.08580258  0.98598547     0.87000
O77         O  0.26811521  0.17963108  0.93636699    -0.54900
O78         O  0.33674840  0.20599458  0.85346258    -0.58200
In79       In  0.33772587  0.86896958  0.08925731     1.36900
C80         C  0.42441066  0.86367324  0.08624066     0.79500
O81         O  0.33773526  0.90330533  0.01248140    -0.59000
O82         O  0.32706140  0.95287187  0.07910418    -0.49900
C83         C  0.27158523  0.81192231  0.04948160     0.72100
O84         O  0.31085058  0.79972354  0.04177142    -0.44700
C85         C  0.32496939  0.86887728  0.18994471     0.76900
O86         O  0.40075258  0.82497645  0.07201173    -0.56600
O87         O  0.31379150  0.90561613  0.16343257    -0.46700
O88         O  0.40370858  0.90303243  0.10169959    -0.53000
C89         C  0.33118494  0.94856596  0.03090920     0.87000
O90         O  0.26654171  0.85143520  0.07915925    -0.54900
O91         O  0.34142079  0.83091964  0.16465902    -0.58200
In92       In  0.13654914  0.65935686  0.92242274     1.36900
C93         C  0.04955133  0.66018388  0.92111925     0.79500
O94         O  0.13708065  0.70207419  0.84956320    -0.59000
O95         O  0.16019191  0.62498146  0.84707543    -0.49900
C96         C  0.20142929  0.71661623  0.96475428     0.72100
O97         O  0.16202051  0.72942319  0.97025043    -0.44700
C98         C  0.14305878  0.57966734  0.98097070     0.76900
O99         O  0.07134570  0.69945698  0.93817132    -0.56600
O100        O  0.15092084  0.57613909  0.93337662    -0.46700
O101        O  0.07220852  0.62275431  0.90477658    -0.53000
C102        C  0.15213360  0.66433788  0.82264009     0.87000
O103        O  0.20714795  0.67616737  0.93660641    -0.54900
O104        O  0.13296752  0.62421725  0.99869550    -0.58200
In105      In  0.64414199  0.87889429  0.42752420     1.36900
C106        C  0.55982022  0.85551193  0.43564024     0.79500
O107        O  0.64858844  0.92291145  0.50438065    -0.59000
O108        O  0.64805203  0.96515778  0.43702153    -0.49900
C109        C  0.71136109  0.82714626  0.46124938     0.72100
O110        O  0.67293300  0.81943359  0.47620168    -0.44700
C111        C  0.65374977  0.87433200  0.32631155     0.76900
O112        O  0.58886395  0.82236024  0.44111004    -0.56600
O113        O  0.66488709  0.91329508  0.35470541    -0.46700
O114        O  0.57412929  0.89974179  0.42622961    -0.53000
C115        C  0.64907572  0.96654533  0.48540153     0.87000
O116        O  0.71527406  0.86069486  0.42849489    -0.54900
O117        O  0.63861592  0.83682801  0.34978802    -0.58200
In118      In  0.84537857  0.68034723  0.56964929     1.36900
C119        C  0.92993472  0.68550784  0.54899231     0.79500
O120        O  0.86200043  0.72481197  0.64400016    -0.59000
O121        O  0.82830073  0.65296037  0.64693312    -0.49900
C122        C  0.78186909  0.73885135  0.53787752     0.72100
O123        O  0.81996356  0.74159446  0.52011667    -0.44700
C124        C  0.82577008  0.59161546  0.51920661     0.76900
O125        O  0.90776623  0.72587160  0.55666028    -0.56600
O126        O  0.83254313  0.59515893  0.56712907    -0.46700
O127        O  0.90874647  0.64388272  0.55054786    -0.53000
C128        C  0.84537403  0.69144462  0.67155366     0.87000
O129        O  0.77693660  0.70764370  0.57265750    -0.54900
O130        O  0.82731594  0.63387838  0.49749154    -0.61400
In131      In  0.84581088  0.36211498  0.42260882     1.36900
C132        C  0.93144843  0.36992778  0.41930994     0.79500
O133        O  0.85070147  0.30841037  0.35217269    -0.59000
O134        O  0.81646475  0.37845994  0.34645086    -0.49900
C135        C  0.79326118  0.30234656  0.47370238     0.72100
O136        O  0.83370711  0.29500439  0.47178571    -0.44700
C137        C  0.83357226  0.44883821  0.47888963     0.76900
O138        O  0.91234757  0.33211697  0.43858970    -0.56600
O139        O  0.82243170  0.44369082  0.43214470    -0.46700
O140        O  0.90674405  0.40302582  0.40181315    -0.53000
C141        C  0.83116001  0.33810354  0.32360205     0.87000
O142        O  0.77987155  0.33820286  0.44732529    -0.54900
O143        O  0.85015513  0.40944179  0.49671597    -0.58200
In144      In  0.63330448  0.19717289  0.58517307     1.36900
C145        C  0.54784885  0.20501255  0.57716799     0.79500
O146        O  0.63080099  0.15119882  0.50971703    -0.59000
O147        O  0.64768713  0.11251258  0.57643481    -0.49900
C148        C  0.69207955  0.25674239  0.54272546     0.72100
O149        O  0.65270771  0.26885368  0.54666362    -0.44700
C150        C  0.64482398  0.20927156  0.68635180     0.76900
O151        O  0.57360608  0.23832688  0.56042245    -0.56600
O152        O  0.65965268  0.17152307  0.65956519    -0.46700
O153        O  0.56590198  0.16812045  0.59791706    -0.53000
C154        C  0.64096144  0.10936284  0.52861273     0.87000
O155        O  0.70191659  0.21548534  0.56297241    -0.54900
O156        O  0.62641027  0.24264381  0.66101766    -0.58200
In157      In  0.83635955  0.36585462  0.08172799     1.36900
C158        C  0.92369813  0.36805401  0.08186571     0.79500
O159        O  0.83251630  0.41511997  0.01355634    -0.59000
O160        O  0.81562841  0.44861293  0.08690504    -0.49900
C161        C  0.78599088  0.29615237  0.02841689     0.72100
O162        O  0.82590547  0.30219108  0.01947943    -0.44700
C163        C  0.81818898  0.36004563  0.18113978     0.76900
O164        O  0.90236039  0.32606065  0.07615112    -0.56600
O165        O  0.80104667  0.39224539  0.15335836    -0.46700
O166        O  0.90055403  0.40751917  0.08751449    -0.53000
C167        C  0.82118171  0.45509944  0.03992293     0.87000
O168        O  0.77194166  0.32531953  0.06475931    -0.54900
O169        O  0.84355003  0.32895102  0.15769861    -0.58200
In170      In  0.63478736  0.15153652  0.92067454     1.36900
C171        C  0.54764157  0.15296161  0.91802005     0.79500
O172        O  0.63081384  0.19885277  0.85087010    -0.59000
O173        O  0.66943389  0.13153863  0.84693373    -0.49900
C174        C  0.68717707  0.21613812  0.97687817     0.72100
O175        O  0.64690221  0.21223432  0.98488538    -0.44700
C176        C  0.64647882  0.05926221  0.95864896     0.76900
O177        O  0.56988784  0.19127304  0.93585051    -0.56600
O178        O  0.65179343  0.06739613  0.91197008    -0.46700
O179        O  0.56984505  0.11520634  0.90151972    -0.53000
C180        C  0.65471361  0.16890947  0.82388058     0.87000
O181        O  0.70080218  0.18674777  0.94039110    -0.54900
O182        O  0.63674083  0.09882810  0.98655988    -0.58200
In183      In  0.63271733  0.85209045  0.08284114     1.36900
C184        C  0.54672159  0.83515581  0.07202684     0.79500
O185        O  0.62384752  0.80511136  0.15238576    -0.59000
O186        O  0.65462432  0.87902397  0.16160111    -0.49900
C187        C  0.69932577  0.79879468  0.04117850     0.72100
O188        O  0.66154114  0.79621781  0.02197419    -0.44700
C189        C  0.64214060  0.94574683  0.04640817     0.76900
O190        O  0.57400176  0.80141266  0.05748224    -0.56600
O191        O  0.64094633  0.93822255  0.09358623    -0.46700
O192        O  0.56366777  0.87664317  0.09058427    -0.53000
C193        C  0.64060106  0.83957414  0.18275791     0.87000
O194        O  0.70263220  0.82790422  0.08134845    -0.54900
O195        O  0.63944939  0.90510677  0.01732937    -0.58200
In196      In  0.84054069  0.65939209  0.91370241     1.36900
C197        C  0.92559128  0.68192631  0.92821994     0.79500
O198        O  0.82830083  0.60751948  0.97895422    -0.59000
O199        O  0.83804223  0.57299446  0.90417123    -0.49900
C200        C  0.77369780  0.71400109  0.95335711     0.72100
O201        O  0.81044297  0.71359070  0.97504447    -0.44700
C202        C  0.83198505  0.66230855  0.81261412     0.76900
O203        O  0.89684761  0.71618481  0.93288972    -0.56600
O204        O  0.81526971  0.62729797  0.83797974    -0.46700
O205        O  0.91052009  0.63708130  0.91793724    -0.53000
C206        C  0.83083708  0.56635501  0.95076633     0.87000
O207        O  0.77160134  0.68755484  0.91142470    -0.54900
O208        O  0.85235930  0.69718628  0.83911124    -0.58200
C209        C  0.73725610  0.77065021  0.01940092    -0.14500
C210        C  0.73561343  0.74224416  0.97466311    -0.29700
H211        H  0.76761594  0.77390883  0.04079959     0.14500
H212        H  0.70538510  0.73927936  0.95298582     0.15100
C213        C  0.64480766  0.99834154  0.02772918    -0.14500
C214        C  0.64956167  0.00697769  0.97783818    -0.29700
H215        H  0.64122679  0.03075201  0.05570411     0.14500
H216        H  0.65386717  0.97465318  0.94993697     0.15100
C217        C  0.81729498  0.50635569  0.01892775    -0.14500
C218        C  0.82735255  0.51420589  0.97002663    -0.29700
H219        H  0.80921391  0.53889090  0.04519565     0.14500
H220        H  0.83530569  0.48162458  0.94375166     0.15100
C221        C  0.75825421  0.25829807  0.99830339    -0.14500
C222        C  0.71550615  0.25261850  0.00779542    -0.29700
H223        H  0.77323216  0.23514884  0.96725667     0.14500
H224        H  0.70056322  0.27596349  0.03872778     0.15100
C225        C  0.64586923  0.21241305  0.74293390    -0.14500
C226        C  0.66311455  0.17443938  0.76892724    -0.29700
H227        H  0.62826482  0.24337979  0.76320182     0.14500
H228        H  0.68061923  0.14352345  0.74842141     0.15100
C229        C  0.81076427  0.36166145  0.23700604    -0.14500
C230        C  0.82899975  0.32797376  0.26741819    -0.29700
H231        H  0.79299349  0.39432296  0.25396370     0.14500
H232        H  0.84668571  0.29519614  0.25058389     0.15100
C233        C  0.76394888  0.27204071  0.50504085    -0.14500
C234        C  0.72323875  0.28770074  0.51464333    -0.29700
H235        H  0.77596659  0.23699080  0.52070200     0.14500
H236        H  0.71166963  0.32319722  0.49942696     0.15100
C237        C  0.84666611  0.69673754  0.72805020    -0.14500
C238        C  0.82826592  0.66083835  0.75636687    -0.29700
H239        H  0.86397102  0.72968004  0.74649534     0.14500
H240        H  0.81096550  0.62803118  0.73762803     0.15100
C241        C  0.81959346  0.54190013  0.48985800    -0.14500
C242        C  0.82962480  0.49736326  0.51041312    -0.29700
H243        H  0.81157726  0.54240795  0.44928933     0.14500
H244        H  0.83935846  0.49729128  0.55050249     0.15100
C245        C  0.64214689  0.83500341  0.23877015    -0.14500
C246        C  0.65722348  0.87422822  0.27010321    -0.29700
H247        H  0.62838651  0.80048379  0.25454383     0.14500
H248        H  0.67040849  0.90892245  0.25405107     0.15100
C249        C  0.64967557  0.01515269  0.51746942    -0.14500
C250        C  0.64392501  0.06082633  0.49684810    -0.29700
H251        H  0.65290536  0.01313657  0.55880355     0.14500
H252        H  0.63952703  0.06254641  0.45562482     0.15100
C253        C  0.74901999  0.79957427  0.48037161    -0.14500
C254        C  0.74515608  0.76830606  0.51929563    -0.29700
H255        H  0.78040140  0.80529895  0.46231980     0.14500
H256        H  0.71375870  0.76303123  0.53747393     0.15100
C257        C  0.97313292  0.69281827  0.93301509    -0.14500
C258        C  0.00153907  0.65531281  0.91978132    -0.29700
H259        H  0.98465729  0.73128986  0.94571291     0.14500
H260        H  0.98890603  0.61757493  0.90607440     0.15100
C261        C  0.47245502  0.86552413  0.08609093    -0.14500
C262        C  0.49878417  0.82735893  0.06866438    -0.29700
H263        H  0.48696087  0.90166043  0.10160432     0.14500
H264        H  0.48532172  0.79086604  0.05276178     0.15100
C265        C  0.23393802  0.78373952  0.02530760    -0.14500
C266        C  0.23870116  0.74516452  0.98928578    -0.29700
H267        H  0.20151768  0.79589909  0.03665313     0.14500
H268        H  0.27117017  0.73297631  0.97816619     0.15100
C269        C  0.47343229  0.18926338  0.93235160    -0.14500
C270        C  0.49963121  0.15042270  0.91631967    -0.29700
H271        H  0.48716191  0.22604839  0.94713472     0.14500
H272        H  0.48524206  0.11403880  0.90130442     0.15100
C273        C  0.33107214  0.04156597  0.01858937    -0.14500
C274        C  0.32964069  0.99281584  0.99835163    -0.29700
H275        H  0.33252098  0.04920583  0.05998583     0.14500
H276        H  0.32972161  0.98514587  0.95693547     0.15100
C277        C  0.97166361  0.37287979  0.08259868    -0.14500
C278        C  0.99930102  0.33314055  0.07684658    -0.29700
H279        H  0.98480042  0.41194684  0.08871017     0.14500
H280        H  0.98694828  0.29378610  0.07050534     0.15100
C281        C  0.14433214  0.53535334  0.01367870    -0.14500
C282        C  0.14490542  0.48640464  0.99378486    -0.29700
H283        H  0.14194893  0.54310893  0.05497550     0.14500
H284        H  0.14536649  0.47851816  0.95240505     0.15100
C285        C  0.23826629  0.28096193  0.02918918    -0.14500
C286        C  0.23454682  0.24440637  0.99082633    -0.29700
H287        H  0.27021281  0.29242020  0.04409497     0.14500
H288        H  0.20255850  0.23280669  0.97614469     0.15100
C289        C  0.47414682  0.17152226  0.58899676    -0.14500
C290        C  0.50038188  0.20904041  0.57299283    -0.29700
H291        H  0.48789968  0.13737030  0.60467211     0.14500
H292        H  0.48690685  0.24308001  0.55683858     0.15100
C293        C  0.32723185  0.20303229  0.74260647    -0.14500
C294        C  0.31714127  0.16347782  0.77161318    -0.29700
H295        H  0.33905715  0.23951359  0.76048810     0.14500
H296        H  0.30659675  0.12659249  0.75339249     0.15100
C297        C  0.00610730  0.34154500  0.43487482    -0.14500
C298        C  0.97885379  0.37636420  0.41736144    -0.29700
H299        H  0.99359614  0.30628104  0.45041155     0.14500
H300        H  0.99163118  0.41130805  0.40140774     0.15100
C301        C  0.14830049  0.33900973  0.27459697    -0.14500
C302        C  0.14942228  0.37852895  0.24354480    -0.29700
H303        H  0.14521739  0.29945693  0.25857823     0.14500
H304        H  0.15274035  0.41796260  0.25987718     0.15100
C305        C  0.26188661  0.27731745  0.51207264    -0.14500
C306        C  0.21848946  0.27659911  0.51673663    -0.29700
H307        H  0.27749182  0.30308858  0.48607183     0.14500
H308        H  0.20288180  0.25113767  0.54303513     0.15100
C309        C  0.97709763  0.68482764  0.54080532    -0.14500
C310        C  0.00402479  0.72277764  0.55901005    -0.29700
H311        H  0.99045851  0.64831655  0.52600307     0.14500
H312        H  0.99110403  0.75841551  0.57649178     0.15100
C313        C  0.14759156  0.70475462  0.73931582    -0.14500
C314        C  0.15829253  0.66440341  0.76661000    -0.29700
H315        H  0.13642824  0.74033327  0.75878012     0.14500
H316        H  0.16897873  0.62870751  0.74691512     0.15100
C317        C  0.13565351  0.53230007  0.53724876    -0.14500
C318        C  0.16000428  0.51325751  0.49814709    -0.29700
H319        H  0.11263419  0.50728191  0.55584165     0.14500
H320        H  0.18305355  0.53819817  0.47951183     0.15100
C321        C  0.48369439  0.88112398  0.43317783    -0.14500
C322        C  0.51280411  0.84387351  0.43954835    -0.29700
H323        H  0.49501176  0.91982886  0.42533774     0.14500
H324        H  0.50210240  0.80485374  0.44692886     0.15100
C325        C  0.33675172  0.83609952  0.27574440    -0.14500
C326        C  0.32045173  0.87197295  0.24627403    -0.29700
H327        H  0.35185275  0.80185915  0.25805680     0.14500
H328        H  0.30619720  0.90669748  0.26409745     0.15100
C329        C  0.32271302  0.99622246  0.51976235    -0.14500
C330        C  0.32077542  0.04192755  0.49830086    -0.29700
H331        H  0.32404307  0.99479778  0.56130697     0.14500
H332        H  0.32220405  0.04355175  0.45678718     0.15100
C333        C  0.22281717  0.76645034  0.49596892    -0.14500
C334        C  0.26589021  0.76492380  0.50425002    -0.29700
H335        H  0.21006038  0.78963435  0.46610848     0.14500
H336        H  0.27879900  0.74119389  0.53356852     0.15100
loop_ 
_geom_bond_atom_site_label_1 
_geom_bond_atom_site_label_2 
_geom_bond_distance 
_geom_bond_site_symmetry_2 
_ccdc_geom_bond_type 
In1           O3   2.246       .  S
In1           O4   2.244       .  S
In1          O12   2.233       .  S
In1           O6   2.253       .  S
In1           O8   2.272       .  S
In1           O9   2.242       .  S
In1          O10   2.225       .  S
In1          O13   2.241       .  S
C2            O8   1.264       .  A
C2           O10   1.257       .  A
C2          C321   1.471       .  S
O3           C11   1.260       .  A
O4           C11   1.262       .  A
C5           O12   1.261       .  A
C5            O6   1.263       .  A
C5          C334   1.474       .  S
C7            O9   1.263       .  A
C7           O13   1.260       .  A
C7          C329   1.470       .  S
C11         C325   1.474       .  S
In14         O16   2.248       .  S
In14         O17   2.240       .  S
In14         O25   2.253       .  S
In14         O19   2.246       .  S
In14         O21   2.266       .  S
In14         O22   2.248       .  S
In14         O23   2.235       .  S
In14         O26   2.257       .  S
C15          O21   1.259       .  A
C15          O23   1.259       .  A
C15         C310   1.475       .  S
O16          C24   1.263       .  A
O17          C24   1.261       .  A
C18          O25   1.260       .  A
C18          O19   1.258       .  A
C18         C333   1.472       .  S
C20          O22   1.259       .  A
C20          O26   1.258       .  A
C20         C313   1.475       .  S
C24         C317   1.471       .  S
In27         O29   2.244       .  S
In27         O30   2.248       .  S
In27         O38   2.249       .  S
In27         O32   2.241       .  S
In27         O34   2.246       .  S
In27         O35   2.241       .  S
In27         O36   2.233       .  S
In27         O39   2.259       .  S
C28          O34   1.259       .  A
C28          O36   1.261       .  A
C28         C297   1.469       .  S
O29          C37   1.261       .  A
O30          C37   1.259       .  A
C31          O38   1.261       .  A
C31          O32   1.257       .  A
C31         C306   1.471       .  S
C33          O35   1.259       .  A
C33          O39   1.259       .  A
C33         C301   1.474       .  S
C37         C318   1.472       .  S
In40         O42   2.248       .  S
In40         O43   2.240       .  S
In40         O51   2.243       .  S
In40         O45   2.237       .  S
In40         O47   2.251       .  S
In40         O48   2.247       .  S
In40         O49   2.231       .  S
In40         O52   2.238       .  S
C41          O47   1.262       .  A
C41          O49   1.257       .  A
C41         C289   1.466       .  S
O42          C50   1.260       .  A
O43          C50   1.262       .  A
C44          O51   1.263       .  A
C44          O45   1.260       .  A
C44         C305   1.471       .  S
C46          O48   1.262       .  A
C46          O52   1.259       .  A
C46         C330   1.469       .  S
C50         C293   1.473       .  S
In53         O55   2.259       .  S
In53         O56   2.232       .  S
In53         O64   2.245       .  S
In53         O58   2.256       .  S
In53         O60   2.283       .  S
In53         O61   2.238       .  S
In53         O62   2.238       .  S
In53         O65   2.249       .  S
C54          O60   1.262       .  A
C54          O62   1.258       .  A
C54         C278   1.485   1_455  S
O55          C63   1.263       .  A
O56          C63   1.258       .  A
C57          O64   1.258       .  A
C57          O58   1.263       .  A
C57         C285   1.475       .  S
C59          O61   1.261       .  A
C59          O65   1.260       .  A
C59         C282   1.471   1_554  S
C63         C302   1.471       .  S
In66         O68   2.238   1_556  S
In66         O69   2.234       .  S
In66         O77   2.236       .  S
In66         O71   2.257       .  S
In66         O73   2.276       .  S
In66         O74   2.233       .  S
In66         O75   2.234       .  S
In66         O78   2.254       .  S
C67          O73   1.264       .  A
C67          O75   1.259       .  A
C67         C269   1.483       .  S
O68          C76   1.260   1_554  A
O69          C76   1.262       .  A
C70          O77   1.258       .  A
C70          O71   1.265       .  A
C70         C286   1.474       .  S
C72          O74   1.260       .  A
C72          O78   1.263       .  A
C72         C294   1.472       .  S
C76         C273   1.467   1_556  S
In79         O81   2.237       .  S
In79         O82   2.233       .  S
In79         O90   2.241       .  S
In79         O84   2.264       .  S
In79         O86   2.295       .  S
In79         O87   2.235       .  S
In79         O88   2.216       .  S
In79         O91   2.253       .  S
C80          O86   1.267       .  A
C80          O88   1.257       .  A
C80         C261   1.478       .  S
O81          C89   1.260       .  A
O82          C89   1.262       .  A
C83          O90   1.258       .  A
C83          O84   1.266       .  A
C83         C265   1.480       .  S
C85          O87   1.260       .  A
C85          O91   1.264       .  A
C85         C326   1.473       .  S
C89         C274   1.467   1_554  S
In92         O94   2.254       .  S
In92         O95   2.237       .  S
In92        O103   2.234       .  S
In92         O97   2.270       .  S
In92         O99   2.299       .  S
In92        O100   2.241       .  S
In92        O101   2.217       .  S
In92        O104   2.237       .  S
C93          O99   1.268       .  A
C93         O101   1.257       .  A
C93         C258   1.480       .  S
O94         C102   1.264       .  A
O95         C102   1.261       .  A
C96         O103   1.258       .  A
C96          O97   1.267       .  A
C96         C266   1.479       .  S
C98         O100   1.263       .  A
C98         O104   1.261       .  A
C98         C281   1.470   1_556  S
C102        C314   1.474       .  S
In105       O107   2.250       .  S
In105       O108   2.235       .  S
In105       O116   2.245       .  S
In105       O110   2.243       .  S
In105       O112   2.269       .  S
In105       O113   2.234       .  S
In105       O114   2.228       .  S
In105       O117   2.250       .  S
C106        O112   1.262       .  A
C106        O114   1.259       .  A
C106        C322   1.478       .  S
O107        C115   1.260       .  A
O108        C115   1.260       .  A
C109        O116   1.258       .  A
C109        O110   1.262       .  A
C109        C253   1.471       .  S
C111        O113   1.259       .  A
C111        O117   1.262       .  A
C111        C246   1.470       .  S
C115        C249   1.470   1_565  S
In118       O120   2.250       .  S
In118       O121   2.236       .  S
In118       O129   2.230       .  S
In118       O123   2.251       .  S
In118       O125   2.274       .  S
In118       O126   2.233       .  S
In118       O127   2.223       .  S
In118       O130   2.238       .  S
C119        O125   1.263       .  A
C119        O127   1.254       .  A
C119        C309   1.467       .  S
O120        C128   1.259       .  A
O121        C128   1.261       .  A
C122        O129   1.257       .  A
C122        O123   1.263       .  A
C122        C254   1.469       .  S
C124        O126   1.264       .  A
C124        O130   1.262       .  A
C124        C241   1.469       .  S
C128        C237   1.472       .  S
In131       O133   2.245       .  S
In131       O134   2.245       .  S
In131       O142   2.220       .  S
In131       O136   2.247       .  S
In131       O138   2.246       .  S
In131       O139   2.242       .  S
In131       O140   2.223       .  S
In131       O143   2.230       .  S
C132        O138   1.264       .  A
C132        O140   1.258       .  A
C132        C298   1.466       .  S
O133        C141   1.259       .  A
O134        C141   1.263       .  A
C135        O142   1.261       .  A
C135        O136   1.262       .  A
C135        C233   1.468       .  S
C137        O139   1.264       .  A
C137        O143   1.260       .  A
C137        C242   1.468       .  S
C141        C230   1.474       .  S
In144       O146   2.240       .  S
In144       O147   2.242       .  S
In144       O155   2.241       .  S
In144       O149   2.236       .  S
In144       O151   2.249       .  S
In144       O152   2.241       .  S
In144       O153   2.227       .  S
In144       O156   2.254       .  S
C145        O151   1.260       .  A
C145        O153   1.260       .  A
C145        C290   1.469       .  S
O146        C154   1.259       .  A
O147        C154   1.261       .  A
C148        O155   1.260       .  A
C148        O149   1.258       .  A
C148        C234   1.465       .  S
C150        O152   1.260       .  A
C150        O156   1.258       .  A
C150        C225   1.473       .  S
C154        C250   1.469       .  S
In157       O159   2.252       .  S
In157       O160   2.242       .  S
In157       O168   2.259       .  S
In157       O162   2.264       .  S
In157       O164   2.291       .  S
In157       O165   2.240       .  S
In157       O166   2.236       .  S
In157       O169   2.261       .  S
C158        O164   1.263       .  A
C158        O166   1.256       .  A
C158        C277   1.479       .  S
O159        C167   1.263       .  A
O160        C167   1.258       .  A
C161        O168   1.258       .  A
C161        O162   1.259       .  A
C161        C221   1.479   1_554  S
C163        O165   1.257       .  A
C163        O169   1.262       .  A
C163        C229   1.473       .  S
C167        C217   1.472       .  S
In170       O172   2.257       .  S
In170       O173   2.238       .  S
In170       O181   2.259       .  S
In170       O175   2.256       .  S
In170       O177   2.284       .  S
In170       O178   2.247       .  S
In170       O179   2.238       .  S
In170       O182   2.257       .  S
C171        O177   1.262       .  A
C171        O179   1.257       .  A
C171        C270   1.477       .  S
O172        C180   1.262       .  A
O173        C180   1.258       .  A
C174        O181   1.260       .  A
C174        O175   1.260       .  A
C174        C222   1.478   1_556  S
C176        O178   1.258       .  A
C176        O182   1.262       .  A
C176        C214   1.475       .  S
C180        C226   1.471       .  S
In183       O185   2.257       .  S
In183       O186   2.230       .  S
In183       O194   2.248       .  S
In183       O188   2.275       .  S
In183       O190   2.290       .  S
In183       O191   2.243       .  S
In183       O192   2.232       .  S
In183       O195   2.261       .  S
C184        O190   1.263       .  A
C184        O192   1.258       .  A
C184        C262   1.487       .  S
O185        C193   1.262       .  A
O186        C193   1.260       .  A
C187        O194   1.257       .  A
C187        O188   1.264       .  A
C187        C209   1.481       .  S
C189        O191   1.257       .  A
C189        O195   1.263       .  A
C189        C213   1.474       .  S
C193        C245   1.473       .  S
In196       O198   2.257       .  S
In196       O199   2.237       .  S
In196       O207   2.254       .  S
In196       O201   2.274       .  S
In196       O203   2.291       .  S
In196       O204   2.231       .  S
In196       O205   2.241       .  S
In196       O208   2.256       .  S
C197        O203   1.263       .  A
C197        O205   1.258       .  A
C197        C257   1.489       .  S
O198        C206   1.263       .  A
O199        C206   1.257       .  A
C200        O207   1.257       .  A
C200        O201   1.263       .  A
C200        C210   1.482       .  S
C202        O204   1.258       .  A
C202        O208   1.263       .  A
C202        C238   1.469       .  S
C206        C218   1.471       .  S
C209        C210   1.343   1_554  D
C209        H211   1.086       .  S
C210        H212   1.086       .  S
C213        C214   1.341   1_564  D
C213        H215   1.087   1_565  S
C214        H216   1.087   1_545  S
C217        C218   1.339   1_554  D
C217        H219   1.087       .  S
C218        H220   1.087       .  S
C221        C222   1.346   1_556  D
C221        H223   1.086       .  S
C222        H224   1.086       .  S
C225        C226   1.341       .  D
C225        H227   1.086       .  S
C226        H228   1.087       .  S
C229        C230   1.341       .  D
C229        H231   1.087       .  S
C230        H232   1.087       .  S
C233        C234   1.341       .  D
C233        H235   1.086       .  S
C234        H236   1.087       .  S
C237        C238   1.340       .  D
C237        H239   1.086       .  S
C238        H240   1.087       .  S
C241        C242   1.340       .  D
C241        H243   1.087       .  S
C242        H244   1.087       .  S
C245        C246   1.343       .  D
C245        H247   1.086       .  S
C246        H248   1.087       .  S
C249        C250   1.342       .  D
C249        H251   1.087       .  S
C250        H252   1.087       .  S
C253        C254   1.339       .  D
C253        H255   1.087       .  S
C254        H256   1.087       .  S
C257        C258   1.347   1_655  D
C257        H259   1.086       .  S
C258        H260   1.087   1_455  S
C261        C262   1.346       .  D
C261        H263   1.087       .  S
C262        H264   1.086       .  S
C265        C266   1.341   1_554  D
C265        H267   1.086       .  S
C266        H268   1.087       .  S
C269        C270   1.346       .  D
C269        H271   1.086       .  S
C270        H272   1.087       .  S
C273        C274   1.340   1_544  D
C273        H275   1.087       .  S
C274        H276   1.087       .  S
C277        C278   1.346       .  D
C277        H279   1.087       .  S
C278        H280   1.086       .  S
C281        C282   1.342   1_554  D
C281        H283   1.087       .  S
C282        H284   1.087       .  S
C285        C286   1.340   1_554  D
C285        H287   1.087       .  S
C286        H288   1.087       .  S
C289        C290   1.340       .  D
C289        H291   1.087       .  S
C290        H292   1.086       .  S
C293        C294   1.342       .  D
C293        H295   1.086       .  S
C294        H296   1.087       .  S
C297        C298   1.339   1_455  D
C297        H299   1.086   1_455  S
C298        H300   1.087       .  S
C301        C302   1.342       .  D
C301        H303   1.086       .  S
C302        H304   1.087       .  S
C305        C306   1.340       .  D
C305        H307   1.086       .  S
C306        H308   1.086       .  S
C309        C310   1.341   1_655  D
C309        H311   1.087       .  S
C310        H312   1.086   1_455  S
C313        C314   1.343       .  D
C313        H315   1.086       .  S
C314        H316   1.087       .  S
C317        C318   1.341       .  D
C317        H319   1.087       .  S
C318        H320   1.086       .  S
C321        C322   1.343       .  D
C321        H323   1.087       .  S
C322        H324   1.086       .  S
C325        C326   1.342       .  D
C325        H327   1.086       .  S
C326        H328   1.087       .  S
C329        C330   1.341   1_565  D
C329        H331   1.087       .  S
C330        H332   1.087       .  S
C333        C334   1.343       .  D
C333        H335   1.087       .  S
C334        H336   1.086       .  S
