geometry optimzed in LAMMPS
_audit_creation_date              2020-12-01 
_audit_creation_method            'lammps2cif' 
_symmetry_space_group_name_H-M    'P1' 
_symmetry_Int_Tables_number       1 
_symmetry_cell_setting            triclinic 
loop_ 
_symmetry_equiv_pos_as_xyz 
  x,y,z 
_cell_length_a                    32.77164414 
_cell_length_b                    32.77149007013883 
_cell_length_c                    32.76871080870757 
_cell_angle_alpha                 90.06701658222768 
_cell_angle_beta                  90.06726696277522 
_cell_angle_gamma                 89.99983322563618 
loop_ 
_atom_site_label 
_atom_site_type_symbol 
_atom_site_fract_x 
_atom_site_fract_y 
_atom_site_fract_z 
_atom_site_charge 
N1          N  0.19723382  0.31746084  0.23410413    -0.25100
N2          N  0.18085921  0.30104817  0.26712492    -0.33000
C3          C  0.14797346  0.32302831  0.27811033     0.03200
C4          C  0.14363062  0.35461522  0.25067101     0.09300
C5          C  0.17519869  0.35033839  0.22318506    -0.03800
H6          H  0.12874064  0.31645008  0.30410632     0.09900
H7          H  0.18172899  0.36961593  0.19721128     0.11100
Cu8        Cu  0.20387897  0.24956698  0.29576203     0.44200
Cu9        Cu  0.24878722  0.29449560  0.20543811     0.42000
Cu10       Cu  0.29410651  0.20474996  0.25080094     0.43900
N11         N  0.23249655  0.19802486  0.31866682    -0.32500
N12         N  0.26551267  0.18163387  0.30222052    -0.26700
C13         C  0.27652407  0.14874591  0.32416435    -0.02800
C14         C  0.24909300  0.14444514  0.35575493     0.09400
C15         C  0.22159207  0.17601590  0.35152427     0.03200
H16         H  0.30255342  0.12952689  0.31759524     0.10800
H17         H  0.19565182  0.18259591  0.37084436     0.09900
N18         N  0.31712533  0.23323536  0.19927935    -0.33900
N19         N  0.30052803  0.26604830  0.18263125    -0.26100
C20         C  0.32252320  0.27691730  0.14974384    -0.01400
C21         C  0.35430176  0.24961249  0.14571742     0.07300
C22         C  0.35013041  0.22233208  0.17745540     0.05400
H23         H  0.31582372  0.30272747  0.13029139     0.10500
H24         H  0.36953337  0.19648935  0.18422095     0.09300
O25         O  0.95562308  0.54297839  0.28450554    -0.70700
O26         O  0.04212288  0.45617724  0.28464786    -0.71700
O27         O  0.04227147  0.54283093  0.28461955    -0.60300
O28         O  0.95547068  0.45634657  0.28457753    -0.68800
O29         O  0.95543367  0.45621209  0.21673910    -0.68300
O30         O  0.04227275  0.54273934  0.21678212    -0.59600
O31         O  0.04209550  0.45607445  0.21680821    -0.72100
O32         O  0.95559764  0.54286696  0.21666645    -0.70900
Cu33       Cu  0.99887488  0.49958670  0.28697907     1.04600
Cu34       Cu  0.99885317  0.49946767  0.21435198     1.04300
C35         C  0.94207487  0.55646758  0.25056827     0.95400
C36         C  0.05563001  0.44256875  0.25074182     0.94600
C37         C  0.05582663  0.55631742  0.25071779     0.86700
C38         C  0.94187816  0.44277025  0.25066374     0.93000
N39         N  0.69686314  0.73332911  0.18378437    -0.25100
N40         N  0.68049813  0.76625277  0.20047984    -0.33000
C41         C  0.64765357  0.77747406  0.17851859     0.03200
C42         C  0.64334428  0.75028138  0.14664344     0.09300
C43         C  0.67487432  0.72269867  0.15074007    -0.03800
H44         H  0.62845879  0.80347762  0.18527608     0.09900
H45         H  0.68142675  0.69687297  0.13121230     0.11100
Cu46       Cu  0.70367807  0.79447357  0.25220143     0.44200
Cu47       Cu  0.74838379  0.70448992  0.20662196     0.42000
Cu48       Cu  0.79367932  0.74898452  0.29709473     0.43900
N49         N  0.73260531  0.81744060  0.30362475    -0.32500
N50         N  0.76552433  0.80082075  0.32007844    -0.26700
C51         C  0.77675564  0.82292225  0.35285416    -0.02800
C52         C  0.74957103  0.85479400  0.35700889     0.09400
C53         C  0.72199019  0.85055632  0.32546904     0.03200
H54         H  0.80273925  0.81624375  0.37212907     0.10800
H55         H  0.69615459  0.87001635  0.31882858     0.09900
N56         N  0.81656329  0.69757180  0.26808158    -0.33900
N57         N  0.80003032  0.68131648  0.23498594    -0.26100
C58         C  0.82207429  0.64855795  0.22369977    -0.01400
C59         C  0.85382800  0.64419196  0.25102155     0.07300
C60         C  0.84957099  0.67560093  0.27874905     0.05400
H61         H  0.81545141  0.62944966  0.19756113     0.10500
H62         H  0.86897648  0.68209154  0.30470064     0.09300
O63         O  0.28282547  0.95685647  0.45791137    -0.70700
O64         O  0.28312853  0.04379869  0.54431979    -0.71700
O65         O  0.28291258  0.95719308  0.54452514    -0.60300
O66         O  0.28311755  0.04345442  0.45768796    -0.68800
O67         O  0.21527778  0.04365028  0.45764518    -0.68300
O68         O  0.21507357  0.95737932  0.54448062    -0.59600
O69         O  0.21528925  0.04396209  0.54425280    -0.72100
O70         O  0.21498534  0.95707722  0.45789192    -0.70900
Cu71       Cu  0.28539768  0.00032170  0.50111172     1.04600
Cu72       Cu  0.21276366  0.00052765  0.50106542     1.04300
C73         C  0.24884436  0.94337823  0.44441618     0.95400
C74         C  0.24923955  0.05745127  0.55779332     0.94600
C75         C  0.24896402  0.94381420  0.55807815     0.86700
C76         C  0.24923010  0.05700705  0.44407744     0.93000
O77         O  0.71563083  0.04314728  0.54500565    -0.70700
O78         O  0.71585272  0.95662627  0.45816828    -0.71700
O79         O  0.71557540  0.95655441  0.54477931    -0.60300
O80         O  0.71586937  0.04324126  0.45836959    -0.68800
O81         O  0.78370614  0.04322981  0.45862665    -0.68300
O82         O  0.78341408  0.95650635  0.54506148    -0.59600
O83         O  0.78368941  0.95659980  0.45843828    -0.72100
O84         O  0.78346817  0.04310365  0.54526794    -0.70900
Cu85       Cu  0.71333696  0.99989603  0.50156859     1.04600
Cu86       Cu  0.78596693  0.99986194  0.50185702     1.04300
C87         C  0.74952327  0.05663025  0.55871583     0.95400
C88         C  0.74980513  0.94307694  0.44475307     0.94600
C89         C  0.74944246  0.94299906  0.55843591     0.86700
C90         C  0.74982327  0.05676572  0.44497439     0.93000
N91         N  0.18029274  0.69962217  0.73476264    -0.25100
N92         N  0.19653744  0.68333040  0.76794599    -0.33000
C93         C  0.17450929  0.65045712  0.77881845     0.03200
C94         C  0.14307955  0.64604028  0.75113424     0.09300
C95         C  0.14748913  0.67755220  0.72362238    -0.03800
H96         H  0.18097260  0.63125471  0.80488093     0.09900
H97         H  0.12837307  0.68400418  0.69746270     0.11100
Cu98       Cu  0.24796052  0.70634575  0.79687027     0.44200
Cu99       Cu  0.20340367  0.75105431  0.70612773     0.42000
Cu100      Cu  0.29318111  0.79620909  0.75174837     0.43900
N101        N  0.29968012  0.73476168  0.81982648    -0.32500
N102        N  0.31623837  0.76762953  0.80328778    -0.26700
C103        C  0.34928303  0.77846133  0.82517001    -0.02800
C104        C  0.35352138  0.75107463  0.85682575     0.09400
C105        C  0.32173547  0.72378345  0.85268945     0.03200
H106        H  0.36868145  0.80431565  0.81848868     0.10800
H107        H  0.31507884  0.69790003  0.87204307     0.09900
N108        N  0.26478610  0.81923700  0.70008464    -0.33900
N109        N  0.23195111  0.80268434  0.68336114    -0.26100
C110        C  0.22116554  0.82461308  0.65038094    -0.01400
C111        C  0.24855164  0.85630704  0.64635941     0.07300
C112        C  0.27579162  0.85215585  0.67820398     0.05400
H113        H  0.19537583  0.81790246  0.63084189     0.10500
H114        H  0.30169360  0.87149579  0.68498269     0.09300
O115        O  0.04196871  0.45743000  0.71725608    -0.70700
O116        O  0.95508353  0.54386079  0.71795754    -0.71700
O117        O  0.04171846  0.54409900  0.71731280    -0.60300
O118        O  0.95531500  0.45723387  0.71787686    -0.68800
O119        O  0.95585718  0.45724540  0.78571524    -0.68300
O120        O  0.04227283  0.54411998  0.78515146    -0.59600
O121        O  0.95563935  0.54388753  0.78579556    -0.72100
O122        O  0.04251971  0.45746050  0.78509207    -0.70900
Cu123      Cu  0.99850390  0.50065289  0.71520683     1.04600
Cu124      Cu  0.99909681  0.50067756  0.78783357     1.04300
C125        C  0.05582281  0.44393781  0.75107060     0.95400
C126        C  0.94177939  0.55737086  0.75198313     0.94600
C127        C  0.05547751  0.55770284  0.75114886     0.86700
C128        C  0.94206926  0.44367943  0.75187324     0.93000
N129        N  0.76578530  0.19850507  0.68369082    -0.25100
N130        N  0.73292845  0.18192856  0.70023312    -0.33000
C131        C  0.72211430  0.14885937  0.67838956     0.03200
C132        C  0.74950229  0.14461111  0.64674973     0.09300
C133        C  0.77677743  0.17641972  0.65085205    -0.03800
H134        H  0.69625124  0.12947050  0.68507032     0.09900
H135        H  0.80263710  0.18309036  0.63147221     0.11100
Cu136      Cu  0.70426831  0.20501960  0.75164844     0.44200
Cu137      Cu  0.79411132  0.25035784  0.70654438     0.42000
Cu138      Cu  0.74908204  0.29532251  0.79675568     0.43900
N139        N  0.68115712  0.23365893  0.80307967    -0.32500
N140        N  0.69753139  0.26669255  0.81958575    -0.26700
C141        C  0.67548471  0.27762181  0.85243636    -0.02800
C142        C  0.64391516  0.25011479  0.85659217     0.09400
C143        C  0.64825374  0.22265892  0.82497143     0.03200
H144        H  0.68202237  0.30359809  0.87178532     0.10800
H145        H  0.62903163  0.19663407  0.81832868     0.09900
N146        N  0.80059329  0.31839080  0.76825303    -0.33900
N147        N  0.81706196  0.30196989  0.73524727    -0.26100
C148        C  0.84995603  0.32399129  0.72440090    -0.01400
C149        C  0.85418609  0.35560357  0.75191883     0.07300
C150        C  0.82254878  0.35130115  0.77930089     0.05400
H151        H  0.86927792  0.31742262  0.69845348     0.10500
H152        H  0.81592366  0.37057432  0.80530155     0.09300
O153        O  0.54172915  0.78491753  0.95835623    -0.70700
O154        O  0.45529290  0.78468524  0.04510664    -0.71700
O155        O  0.54192215  0.78479435  0.04500866    -0.60300
O156        O  0.45511074  0.78485848  0.95845031    -0.68800
O157        O  0.45515850  0.71702248  0.95825214    -0.68300
O158        O  0.54198506  0.71695826  0.04479865    -0.59600
O159        O  0.45538634  0.71684801  0.04488947    -0.72100
O160        O  0.54176051  0.71707988  0.95817600    -0.70900
Cu161      Cu  0.49851010  0.78721340  0.00173676     1.04600
Cu162      Cu  0.49857396  0.71458499  0.00152215     1.04300
C163        C  0.55524213  0.75102148  0.94471170     0.95400
C164        C  0.44185058  0.75071641  0.05856157     0.94600
C165        C  0.55550603  0.75086304  0.05844094     0.86700
C166        C  0.44158670  0.75095561  0.94480912     0.93000
O167        O  0.45571603  0.21631935  0.95743603    -0.70700
O168        O  0.54218306  0.21532124  0.04428030    -0.71700
O169        O  0.45560158  0.21571574  0.04406123    -0.60300
O170        O  0.54230881  0.21590357  0.95766572    -0.68800
O171        O  0.54260946  0.28374213  0.95819464    -0.68300
O172        O  0.45590528  0.28355309  0.04459022    -0.59600
O173        O  0.54247329  0.28316025  0.04479364    -0.72100
O174        O  0.45602589  0.28415707  0.95797427    -0.70900
Cu175      Cu  0.49894076  0.21341624  0.00083909     1.04600
Cu176      Cu  0.49926484  0.28604893  0.00140563     1.04300
C177        C  0.44237237  0.25039346  0.94412750     0.95400
C178        C  0.55581805  0.24909758  0.05811986     0.94600
C179        C  0.44222540  0.24960519  0.05784544     0.86700
C180        C  0.55599902  0.24985241  0.94442716     0.93000
N181        N  0.69660698  0.73411341  0.81960540    -0.25100
N182        N  0.68037510  0.76727216  0.80327308    -0.33000
C183        C  0.64750704  0.77833495  0.82522537     0.03200
C184        C  0.64304512  0.75080614  0.85670782     0.09300
C185        C  0.67450844  0.72318582  0.85240120    -0.03800
H186        H  0.62839001  0.80445562  0.81871998     0.09900
H187        H  0.68094369  0.69713277  0.87161785     0.11100
Cu188      Cu  0.70358184  0.79599236  0.75194735     0.44200
Cu189      Cu  0.74807469  0.70525538  0.79670765     0.42000
Cu190      Cu  0.79323469  0.75000374  0.70680238     0.43900
N191        N  0.73225492  0.81858389  0.70032104    -0.32500
N192        N  0.76499076  0.80171088  0.68379523    -0.26700
C193        C  0.77603079  0.82344392  0.65080136    -0.02800
C194        C  0.74892371  0.85534728  0.64655862     0.09400
C195        C  0.72157403  0.85152457  0.67828726     0.03200
H196        H  0.80183688  0.81648654  0.63143393     0.10800
H197        H  0.69584432  0.87112641  0.68490832     0.09900
N198        N  0.81625136  0.69853079  0.73545487    -0.33900
N199        N  0.79974196  0.68213147  0.76840607    -0.26100
C200        C  0.82178467  0.64931114  0.77949241    -0.01400
C201        C  0.85350584  0.64506064  0.75217230     0.07300
C202        C  0.84923588  0.67660273  0.72466489     0.05400
H203        H  0.81516802  0.63006820  0.80547047     0.10500
H204        H  0.86859480  0.68319315  0.69876593     0.09300
N205        N  0.76575104  0.19788736  0.31939745    -0.25100
N206        N  0.73263736  0.18136134  0.30319488    -0.33000
C207        C  0.72190240  0.14850330  0.32530285     0.03200
C208        C  0.74960330  0.14436076  0.35675023     0.09300
C209        C  0.77697710  0.17600043  0.35225943    -0.03800
H210        H  0.69588461  0.12918030  0.31893109     0.09900
H211        H  0.80306662  0.18269952  0.37139837     0.11100
Cu212      Cu  0.70356215  0.20421223  0.25183434     0.44200
Cu213      Cu  0.79415943  0.24944584  0.29622433     0.42000
Cu214      Cu  0.74857306  0.29427036  0.20650635     0.43900
N215        N  0.68053113  0.23263439  0.20020720    -0.32500
N216        N  0.69702181  0.26552591  0.18364071    -0.26700
C217        C  0.67508575  0.27630512  0.15064492    -0.02800
C218        C  0.64345509  0.24886428  0.14644241     0.09400
C219        C  0.64764176  0.22159089  0.17819740     0.03200
H220        H  0.68173520  0.30214796  0.13123448     0.10800
H221        H  0.62833029  0.19566198  0.18484584     0.09900
N222        N  0.80018529  0.31754456  0.23482644    -0.33900
N223        N  0.81690260  0.30112918  0.26770282    -0.26100
C224        C  0.84981575  0.32321207  0.27849727    -0.01400
C225        C  0.85380267  0.35486292  0.25106588     0.07300
C226        C  0.82199853  0.35051232  0.22379452     0.05400
H227        H  0.86933339  0.31664038  0.30432854     0.10500
H228        H  0.81518851  0.36976885  0.19785999     0.09300
N229        N  0.30096121  0.26746350  0.81875595    -0.25100
N230        N  0.31759237  0.23463797  0.80212378    -0.33000
C231        C  0.35059892  0.22379810  0.82402145     0.03200
C232        C  0.35473808  0.25113057  0.85578621     0.09300
C233        C  0.32294082  0.27840206  0.85170444    -0.03800
H234        H  0.36998828  0.19792328  0.81732451     0.09900
H235        H  0.31617869  0.30420064  0.87119611     0.11100
Cu236      Cu  0.29460354  0.20594906  0.75060840     0.44200
Cu237      Cu  0.24915348  0.29584647  0.79598050     0.42000
Cu238      Cu  0.20471025  0.25133052  0.70533151     0.43900
N239        N  0.26589639  0.18290713  0.69912976    -0.32500
N240        N  0.23304327  0.19950958  0.68252746    -0.26700
C241        C  0.22201855  0.17744478  0.64966262    -0.02800
C242        C  0.24927154  0.14562408  0.64560505     0.09400
C243        C  0.27667410  0.14983804  0.67729762     0.03200
H244        H  0.19614671  0.18413422  0.63024274     0.10800
H245        H  0.30252154  0.13042235  0.68402364     0.09900
N246        N  0.18148346  0.30277469  0.73401844    -0.33900
N247        N  0.19769606  0.31902278  0.76727043    -0.26100
C248        C  0.17558018  0.35181528  0.77831673    -0.01400
C249        C  0.14411612  0.35622352  0.75066290     0.07300
C250        C  0.14861448  0.32478668  0.72299650     0.05400
H251        H  0.18197047  0.37093444  0.80450481     0.10500
H252        H  0.12946864  0.31830736  0.69684978     0.09300
N253        N  0.30036222  0.73363957  0.18349604    -0.25100
N254        N  0.31703720  0.76634825  0.20034790    -0.33000
C255        C  0.35006821  0.77726075  0.17860085     0.03200
C256        C  0.35418283  0.75009790  0.14669690     0.09300
C257        C  0.32234160  0.72284702  0.15054876    -0.03800
H258        H  0.36949270  0.80306982  0.18549557     0.09900
H259        H  0.31555613  0.69715656  0.13090597     0.11100
Cu260      Cu  0.29404064  0.79478534  0.25193387     0.44200
Cu261      Cu  0.24851374  0.70523109  0.20604179     0.42000
Cu262      Cu  0.20401238  0.74940517  0.29682870     0.43900
N263        N  0.26526322  0.81776554  0.30332040    -0.32500
N264        N  0.23236059  0.80119394  0.31978033    -0.26700
C265        C  0.22130061  0.82327065  0.35260223    -0.02800
C266        C  0.24858503  0.85506061  0.35677089     0.09400
C267        C  0.27603801  0.85081796  0.32519750     0.03200
H268        H  0.19538262  0.81661612  0.37190980     0.10800
H269        H  0.30191114  0.87021258  0.31857240     0.09900
N270        N  0.18090452  0.69798359  0.26792382    -0.33900
N271        N  0.19712953  0.68189201  0.23463718    -0.26100
C272        C  0.17511876  0.64905454  0.22346900    -0.01400
C273        C  0.14370951  0.64444517  0.25107155     0.07300
C274        C  0.14812965  0.67581404  0.27884376     0.05400
H275        H  0.18156265  0.63002140  0.19724768     0.10500
H276        H  0.12901111  0.68212456  0.30500515     0.08100
C277        C  0.41152326  0.25074846  0.91305702    -0.11100
C278        C  0.38561875  0.25099006  0.88691974    -0.12600
C279        C  0.58664589  0.24879509  0.08920442    -0.11100
C280        C  0.61254620  0.24872998  0.11534290    -0.12600
C281        C  0.61207593  0.75095328  0.88769341    -0.11100
C282        C  0.58611324  0.75104844  0.91372068    -0.12600
C283        C  0.41101426  0.75057464  0.08958792    -0.11100
C284        C  0.38509794  0.75034506  0.11566004    -0.12600
C285        C  0.61294165  0.25001303  0.88755056    -0.11100
C286        C  0.58694701  0.24992465  0.91353301    -0.12600
C287        C  0.08688213  0.41306013  0.75084459    -0.11100
C288        C  0.11299456  0.38713032  0.75073061    -0.12600
C289        C  0.88459581  0.61413972  0.75228644    -0.11100
C290        C  0.91070997  0.58822169  0.75221602    -0.12600
C291        C  0.91115189  0.41267898  0.75202877    -0.11100
C292        C  0.88516220  0.38663733  0.75202444    -0.12600
C293        C  0.38459352  0.75103329  0.88779455    -0.11100
C294        C  0.41062190  0.75099392  0.91382524    -0.12600
C295        C  0.08628771  0.58880465  0.75097329    -0.11100
C296        C  0.11217479  0.61494424  0.75096752    -0.12600
C297        C  0.74988367  0.08765252  0.41399383    -0.11100
C298        C  0.74980319  0.11353374  0.38788232    -0.12600
C299        C  0.74930903  0.91209802  0.58938572    -0.11100
C300        C  0.74913400  0.88619401  0.61546387    -0.12600
C301        C  0.74949753  0.11354771  0.61578516    -0.11100
C302        C  0.74947695  0.08752977  0.58975171    -0.12600
C303        C  0.24868586  0.91228615  0.41359343    -0.11100
C304        C  0.24855020  0.88615039  0.38769004    -0.12600
C305        C  0.24928472  0.08848134  0.58868678    -0.11100
C306        C  0.24924492  0.11455825  0.61465421    -0.12600
C307        C  0.24889174  0.91302832  0.58914630    -0.11100
C308        C  0.24876687  0.88716757  0.61527096    -0.12600
C309        C  0.61241916  0.75063686  0.11553243    -0.11100
C310        C  0.58645970  0.75081625  0.08943474    -0.12600
C311        C  0.74982894  0.88595397  0.38788083    -0.11100
C312        C  0.74987631  0.91207866  0.41381043    -0.12600
C313        C  0.08678824  0.58729432  0.25077648    -0.11100
C314        C  0.11276018  0.61336529  0.25090990    -0.12600
C315        C  0.88479876  0.38588398  0.25084646    -0.11100
C316        C  0.91084519  0.41187389  0.25069906    -0.12600
C317        C  0.91107789  0.58739521  0.25054431    -0.11100
C318        C  0.88496409  0.61331546  0.25067700    -0.12600
C319        C  0.38531221  0.24955095  0.11477541    -0.11100
C320        C  0.41130295  0.24954424  0.08877876    -0.12600
C321        C  0.24925089  0.11358181  0.38682857    -0.11100
C322        C  0.24929437  0.08774768  0.41297353    -0.12600
C323        C  0.11260392  0.38559457  0.25072221    -0.11100
C324        C  0.08657134  0.41159205  0.25076153    -0.12600
loop_ 
_geom_bond_atom_site_label_1 
_geom_bond_atom_site_label_2 
_geom_bond_distance 
_geom_bond_site_symmetry_2 
_ccdc_geom_bond_type 
N1            N2   1.323       .  A
N1            C5   1.346       .  A
N1           Cu9   2.075       .  S
N2            C3   1.345       .  A
N2           Cu8   2.073       .  S
C3            C4   1.379       .  A
C3            H6   1.082       .  S
C4            C5   1.380       .  A
C4          C323   1.437       .  S
C5            H7   1.082       .  S
Cu8          N11   2.073       .  S
Cu9          N19   2.075       .  S
Cu10         N12   2.073       .  S
Cu10         N18   2.073       .  S
N11          N12   1.323       .  A
N11          C15   1.345       .  A
N12          C13   1.345       .  A
C13          C14   1.379       .  A
C13          H16   1.082       .  S
C14          C15   1.379       .  A
C14         C321   1.436       .  S
C15          H17   1.082       .  S
N18          N19   1.323       .  A
N18          C22   1.345       .  A
N19          C20   1.346       .  A
C20          C21   1.379       .  A
C20          H23   1.082       .  S
C21          C22   1.379       .  A
C21         C319   1.436       .  S
C22          H24   1.082       .  S
O25         Cu33   2.009       .  S
O25          C35   1.276       .  A
O26         Cu33   2.010   1_455  S
O26          C36   1.276       .  A
O27         Cu33   2.009   1_455  S
O27          C37   1.276       .  A
O28         Cu33   2.009       .  S
O28          C38   1.276       .  A
O29         Cu34   2.010       .  S
O29          C38   1.277       .  A
O30         Cu34   2.010   1_455  S
O30          C37   1.277       .  A
O31         Cu34   2.009   1_455  S
O31          C36   1.276       .  A
O32         Cu34   2.009       .  S
O32          C35   1.276       .  A
Cu33        Cu34   2.380       .  S
C35         C317   1.435       .  S
C36         C324   1.435       .  S
C37         C313   1.435       .  S
C38         C316   1.435       .  S
N39          N40   1.323       .  A
N39          C43   1.346       .  A
N39         Cu47   2.074       .  S
N40          C41   1.346       .  A
N40         Cu46   2.073       .  S
C41          C42   1.379       .  A
C41          H44   1.082       .  S
C42          C43   1.379       .  A
C42         C309   1.437       .  S
C43          H45   1.082       .  S
Cu46         N49   2.073       .  S
Cu47         N57   2.074       .  S
Cu48         N50   2.074       .  S
Cu48         N56   2.074       .  S
N49          N50   1.323       .  A
N49          C53   1.345       .  A
N50          C51   1.346       .  A
C51          C52   1.380       .  A
C51          H54   1.082       .  S
C52          C53   1.379       .  A
C52         C311   1.437       .  S
C53          H55   1.082       .  S
N56          N57   1.323       .  A
N56          C60   1.346       .  A
N57          C58   1.346       .  A
C58          C59   1.380       .  A
C58          H61   1.082       .  S
C59          C60   1.379       .  A
C59         C318   1.437       .  S
C60          H62   1.082       .  S
O63         Cu71   2.009   1_565  S
O63          C73   1.276       .  A
O64         Cu71   2.009       .  S
O64          C74   1.276       .  A
O65         Cu71   2.008   1_565  S
O65          C75   1.276       .  A
O66         Cu71   2.008       .  S
O66          C76   1.276       .  A
O67         Cu72   2.008       .  S
O67          C76   1.276       .  A
O68         Cu72   2.008   1_565  S
O68          C75   1.276       .  A
O69         Cu72   2.008       .  S
O69          C74   1.276       .  A
O70         Cu72   2.007   1_565  S
O70          C73   1.276       .  A
Cu71        Cu72   2.380       .  S
C73         C303   1.434       .  S
C74         C305   1.434       .  S
C75         C307   1.434       .  S
C76         C322   1.434       .  S
O77         Cu85   2.009   1_545  S
O77          C87   1.276       .  A
O78         Cu85   2.009       .  S
O78          C88   1.276       .  A
O79         Cu85   2.008       .  S
O79          C89   1.276       .  A
O80         Cu85   2.008   1_545  S
O80          C90   1.276       .  A
O81         Cu86   2.009   1_545  S
O81          C90   1.276       .  A
O82         Cu86   2.009       .  S
O82          C89   1.276       .  A
O83         Cu86   2.009       .  S
O83          C88   1.276       .  A
O84         Cu86   2.008   1_545  S
O84          C87   1.276       .  A
Cu85        Cu86   2.380       .  S
C87         C302   1.434       .  S
C88         C312   1.434       .  S
C89         C299   1.434       .  S
C90         C297   1.434       .  S
N91          N92   1.323       .  A
N91          C95   1.346       .  A
N91         Cu99   2.074       .  S
N92          C93   1.345       .  A
N92         Cu98   2.074       .  S
C93          C94   1.379       .  A
C93          H96   1.082       .  S
C94          C95   1.379       .  A
C94         C296   1.437       .  S
C95          H97   1.082       .  S
Cu98        N101   2.074       .  S
Cu99        N109   2.073       .  S
Cu100       N102   2.074       .  S
Cu100       N108   2.074       .  S
N101        N102   1.323       .  A
N101        C105   1.346       .  A
N102        C103   1.346       .  A
C103        C104   1.379       .  A
C103        H106   1.082       .  S
C104        C105   1.379       .  A
C104        C293   1.437       .  S
C105        H107   1.082       .  S
N108        N109   1.323       .  A
N108        C112   1.346       .  A
N109        C110   1.345       .  A
C110        C111   1.379       .  A
C110        H113   1.082       .  S
C111        C112   1.379       .  A
C111        C308   1.436       .  S
C112        H114   1.082       .  S
O115       Cu123   2.010   1_455  S
O115        C125   1.276       .  A
O116       Cu123   2.009       .  S
O116        C126   1.276       .  A
O117       Cu123   2.009   1_455  S
O117        C127   1.276       .  A
O118       Cu123   2.009       .  S
O118        C128   1.276       .  A
O119       Cu124   2.010       .  S
O119        C128   1.276       .  A
O120       Cu124   2.009   1_455  S
O120        C127   1.276       .  A
O121       Cu124   2.009       .  S
O121        C126   1.276       .  A
O122       Cu124   2.010   1_455  S
O122        C125   1.276       .  A
Cu123      Cu124   2.380       .  S
C125        C287   1.435       .  S
C126        C290   1.435       .  S
C127        C295   1.435       .  S
C128        C291   1.435       .  S
N129        N130   1.323       .  A
N129        C133   1.346       .  A
N129       Cu137   2.075       .  S
N130        C131   1.345       .  A
N130       Cu136   2.072       .  S
C131        C132   1.379       .  A
C131        H134   1.082       .  S
C132        C133   1.380       .  A
C132        C301   1.436       .  S
C133        H135   1.082       .  S
Cu136       N139   2.072       .  S
Cu137       N147   2.075       .  S
Cu138       N140   2.073       .  S
Cu138       N146   2.073       .  S
N139        N140   1.323       .  A
N139        C143   1.345       .  A
N140        C141   1.345       .  A
C141        C142   1.379       .  A
C141        H144   1.082       .  S
C142        C143   1.379       .  A
C142        C285   1.436       .  S
C143        H145   1.082       .  S
N146        N147   1.323       .  A
N146        C150   1.346       .  A
N147        C148   1.346       .  A
C148        C149   1.380       .  A
C148        H151   1.082       .  S
C149        C150   1.379       .  A
C149        C292   1.437       .  S
C150        H152   1.082       .  S
O153       Cu161   2.009   1_556  S
O153        C163   1.276       .  A
O154       Cu161   2.009       .  S
O154        C164   1.276       .  A
O155       Cu161   2.009       .  S
O155        C165   1.276       .  A
O156       Cu161   2.009   1_556  S
O156        C166   1.276       .  A
O157       Cu162   2.009   1_556  S
O157        C166   1.276       .  A
O158       Cu162   2.009       .  S
O158        C165   1.276       .  A
O159       Cu162   2.008       .  S
O159        C164   1.276       .  A
O160       Cu162   2.008   1_556  S
O160        C163   1.276       .  A
Cu161      Cu162   2.380       .  S
C163        C282   1.434       .  S
C164        C283   1.434       .  S
C165        C310   1.435       .  S
C166        C294   1.435       .  S
O167       Cu175   2.008   1_556  S
O167        C177   1.276       .  A
O168       Cu175   2.008       .  S
O168        C178   1.276       .  A
O169       Cu175   2.008       .  S
O169        C179   1.276       .  A
O170       Cu175   2.008   1_556  S
O170        C180   1.276       .  A
O171       Cu176   2.008   1_556  S
O171        C180   1.276       .  A
O172       Cu176   2.008       .  S
O172        C179   1.276       .  A
O173       Cu176   2.008       .  S
O173        C178   1.276       .  A
O174       Cu176   2.008   1_556  S
O174        C177   1.276       .  A
Cu175      Cu176   2.380       .  S
C177        C277   1.434       .  S
C178        C279   1.434       .  S
C179        C320   1.434       .  S
C180        C286   1.434       .  S
N181        N182   1.323       .  A
N181        C185   1.346       .  A
N181       Cu189   2.075       .  S
N182        C183   1.345       .  A
N182       Cu188   2.074       .  S
C183        C184   1.379       .  A
C183        H186   1.082       .  S
C184        C185   1.379       .  A
C184        C281   1.436       .  S
C185        H187   1.082       .  S
Cu188       N191   2.074       .  S
Cu189       N199   2.074       .  S
Cu190       N192   2.073       .  S
Cu190       N198   2.073       .  S
N191        N192   1.323       .  A
N191        C195   1.346       .  A
N192        C193   1.345       .  A
C193        C194   1.379       .  A
C193        H196   1.082       .  S
C194        C195   1.379       .  A
C194        C300   1.436       .  S
C195        H197   1.082       .  S
N198        N199   1.323       .  A
N198        C202   1.345       .  A
N199        C200   1.346       .  A
C200        C201   1.380       .  A
C200        H203   1.082       .  S
C201        C202   1.379       .  A
C201        C289   1.437       .  S
C202        H204   1.082       .  S
N205        N206   1.323       .  A
N205        C209   1.345       .  A
N205       Cu213   2.074       .  S
N206        C207   1.346       .  A
N206       Cu212   2.074       .  S
C207        C208   1.379       .  A
C207        H210   1.082       .  S
C208        C209   1.379       .  A
C208        C298   1.437       .  S
C209        H211   1.082       .  S
Cu212       N215   2.074       .  S
Cu213       N223   2.074       .  S
Cu214       N216   2.073       .  S
Cu214       N222   2.073       .  S
N215        N216   1.323       .  A
N215        C219   1.346       .  A
N216        C217   1.345       .  A
C217        C218   1.379       .  A
C217        H220   1.082       .  S
C218        C219   1.379       .  A
C218        C280   1.436       .  S
C219        H221   1.082       .  S
N222        N223   1.323       .  A
N222        C226   1.346       .  A
N223        C224   1.346       .  A
C224        C225   1.380       .  A
C224        H227   1.082       .  S
C225        C226   1.379       .  A
C225        C315   1.437       .  S
C226        H228   1.082       .  S
N229        N230   1.323       .  A
N229        C233   1.345       .  A
N229       Cu237   2.074       .  S
N230        C231   1.345       .  A
N230       Cu236   2.072       .  S
C231        C232   1.379       .  A
C231        H234   1.082       .  S
C232        C233   1.379       .  A
C232        C278   1.436       .  S
C233        H235   1.082       .  S
Cu236       N239   2.072       .  S
Cu237       N247   2.075       .  S
Cu238       N240   2.074       .  S
Cu238       N246   2.074       .  S
N239        N240   1.323       .  A
N239        C243   1.345       .  A
N240        C241   1.346       .  A
C241        C242   1.379       .  A
C241        H244   1.082       .  S
C242        C243   1.379       .  A
C242        C306   1.436       .  S
C243        H245   1.082       .  S
N246        N247   1.323       .  A
N246        C250   1.346       .  A
N247        C248   1.346       .  A
C248        C249   1.380       .  A
C248        H251   1.082       .  S
C249        C250   1.380       .  A
C249        C288   1.437       .  S
C250        H252   1.082       .  S
N253        N254   1.323       .  A
N253        C257   1.346       .  A
N253       Cu261   2.075       .  S
N254        C255   1.345       .  A
N254       Cu260   2.072       .  S
C255        C256   1.379       .  A
C255        H258   1.082       .  S
C256        C257   1.379       .  A
C256        C284   1.436       .  S
C257        H259   1.082       .  S
Cu260       N263   2.072       .  S
Cu261       N271   2.075       .  S
Cu262       N264   2.075       .  S
Cu262       N270   2.075       .  S
N263        N264   1.323       .  A
N263        C267   1.345       .  A
N264        C265   1.346       .  A
C265        C266   1.379       .  A
C265        H268   1.082       .  S
C266        C267   1.379       .  A
C266        C304   1.436       .  S
C267        H269   1.082       .  S
N270        N271   1.323       .  A
N270        C274   1.346       .  A
N271        C272   1.346       .  A
C272        C273   1.379       .  A
C272        H275   1.082       .  S
C273        C274   1.380       .  A
C273        C314   1.437       .  S
C274        H276   1.082       .  S
C277        C278   1.205       .  T
C279        C280   1.205       .  T
C281        C282   1.205       .  T
C283        C284   1.205       .  T
C285        C286   1.205       .  T
C287        C288   1.206       .  T
C289        C290   1.206       .  T
C291        C292   1.206       .  T
C293        C294   1.206       .  T
C295        C296   1.206       .  T
C297        C298   1.205       .  T
C299        C300   1.205       .  T
C301        C302   1.205       .  T
C303        C304   1.205       .  T
C305        C306   1.205       .  T
C307        C308   1.205       .  T
C309        C310   1.206       .  T
C311        C312   1.206       .  T
C313        C314   1.206       .  T
C315        C316   1.206       .  T
C317        C318   1.206       .  T
C319        C320   1.205       .  T
C321        C322   1.205       .  T
C323        C324   1.206       .  T
