geometry optimzed in LAMMPS
_audit_creation_date              2020-12-01 
_audit_creation_method            'lammps2cif' 
_symmetry_space_group_name_H-M    'P1' 
_symmetry_Int_Tables_number       1 
_symmetry_cell_setting            triclinic 
loop_ 
_symmetry_equiv_pos_as_xyz 
  x,y,z 
_cell_length_a                    25.28623063 
_cell_length_b                    26.045824580245995 
_cell_length_c                    25.617954835326643 
_cell_angle_alpha                 95.32186019139411 
_cell_angle_beta                  84.27474288677803 
_cell_angle_gamma                 84.00261461582294 
loop_ 
_atom_site_label 
_atom_site_type_symbol 
_atom_site_fract_x 
_atom_site_fract_y 
_atom_site_fract_z 
_atom_site_charge 
N1          N  0.11799462  0.16381010  0.26291696    -0.26300
N2          N  0.10459793  0.20609005  0.24020117    -0.34100
C3          C  0.05692959  0.22939890  0.26291933     0.02100
C4          C  0.03900723  0.20054158  0.30209727     0.08100
C5          C  0.07850987  0.15902794  0.30115808    -0.05000
H6          H  0.03643460  0.26378033  0.25038308     0.08800
H7          H  0.07684236  0.12612354  0.32388414     0.10000
Cu8        Cu  0.14936340  0.22887213  0.17685524     0.44200
Cu9        Cu  0.18765006  0.11370587  0.23467511     0.42000
Cu10       Cu  0.27989307  0.16340909  0.13389861     0.43900
N11         N  0.20317983  0.25727812  0.12474159    -0.33700
N12         N  0.25307059  0.23602403  0.11170881    -0.27900
C13         C  0.28013691  0.26954247  0.08554581    -0.04000
C14         C  0.24475112  0.31290858  0.08081973     0.08200
C15         C  0.19666524  0.30384588  0.10646089     0.02000
H16         H  0.32257960  0.26363468  0.07260905     0.09600
H17         H  0.16063361  0.33088972  0.11480071     0.08700
N18         N  0.29106813  0.08942037  0.15938062    -0.35100
N19         N  0.25800226  0.07152531  0.19506163    -0.27300
C20         C  0.27718600  0.02252106  0.20158522    -0.02500
C21         C  0.32420750  0.00888549  0.16834131     0.06100
C22         C  0.33207233  0.05230741  0.14247605     0.04200
H23         H  0.25913987  0.99961998  0.22990653     0.09300
H24         H  0.36484878  0.05675360  0.11338623     0.08100
N25         N  0.23558909  0.84413695  0.12687346    -0.26300
N26         N  0.21572580  0.86512599  0.17464324    -0.34100
C27         C  0.25018901  0.89589292  0.19426517     0.02100
C28         C  0.29335965  0.89540496  0.15648887     0.08100
C29         C  0.28311168  0.86141336  0.11472506    -0.05000
H30         H  0.24581356  0.91397448  0.23440804     0.08800
H31         H  0.30987899  0.84783499  0.07938505     0.10000
Cu32       Cu  0.14402196  0.84843047  0.21142360     0.44200
Cu33       Cu  0.19945035  0.78872322  0.08308681     0.42000
Cu34       Cu  0.06632529  0.76406181  0.13530610     0.43900
N35         N  0.06744979  0.83402109  0.23706397    -0.33700
N36         N  0.03815216  0.80473361  0.20952093    -0.27900
C37         C  0.98953642  0.80640265  0.23703999    -0.04000
C38         C  0.98845701  0.83845777  0.28375057     0.08200
C39         C  0.03878128  0.85476767  0.28255985     0.02000
H40         H  0.95818281  0.78485509  0.22435929     0.09600
H41         H  0.05375416  0.88063041  0.31132971     0.08700
N42         N  0.10643683  0.72772346  0.06313154    -0.35100
N43         N  0.15562779  0.73571556  0.04532457    -0.27300
C44         C  0.17035149  0.70705977  0.99851981    -0.02500
C45         C  0.12810191  0.68051916  0.98578526     0.06100
C46         C  0.08827350  0.69421948  0.02749176     0.04200
H47         H  0.20838064  0.70686823  0.97508386     0.09300
H48         H  0.04871762  0.68171173  0.03105064     0.08100
N49         N  0.73454305  0.23083027  0.08438185    -0.26300
N50         N  0.75923418  0.19077098  0.10360529    -0.34100
C51         C  0.72442917  0.15613685  0.11335701     0.02100
C52         C  0.67501699  0.17533777  0.09977840     0.08100
C53         C  0.68342411  0.22260258  0.08110184    -0.05000
H54         H  0.73388737  0.12221037  0.13306404     0.08800
H55         H  0.65367928  0.25072996  0.06912546     0.10000
Cu56       Cu  0.83446371  0.19147129  0.12796161     0.44200
Cu57       Cu  0.76880746  0.29859101  0.07162712     0.42000
Cu58       Cu  0.88666732  0.31639412  0.13704536     0.43900
N59         N  0.89202827  0.20983370  0.17582779    -0.33700
N60         N  0.90877513  0.25618014  0.18234185    -0.27900
C61         C  0.93447043  0.25877434  0.22600350    -0.04000
C62         C  0.93464593  0.21155473  0.24724823     0.08200
C63         C  0.90681175  0.18197155  0.21454889     0.02000
H64         H  0.94635603  0.29424325  0.24434700     0.09600
H65         H  0.89246781  0.14537717  0.22218522     0.08700
N66         N  0.85749375  0.36627914  0.08404837    -0.35100
N67         N  0.81382903  0.36007930  0.06081905    -0.27300
C68         C  0.80984663  0.39327779  0.02368394    -0.02500
C69         C  0.85300279  0.42193816  0.02323964     0.06100
C70         C  0.88248922  0.40341101  0.06185439     0.04200
H71         H  0.78053616  0.39297787  0.99574839     0.09300
H72         H  0.92227624  0.41203979  0.06886827     0.08100
N73         N  0.19028595  0.28406821  0.73689383    -0.26300
N74         N  0.20164303  0.23523405  0.71583384    -0.34100
C75         C  0.17963703  0.22920422  0.67045175     0.02100
C76         C  0.15362173  0.27630268  0.66220902     0.08100
C77         C  0.16160410  0.31059481  0.70445833    -0.05000
H78         H  0.18346918  0.19336185  0.64468044     0.08800
H79         H  0.14700879  0.35145497  0.71150327     0.10000
Cu80       Cu  0.24873345  0.17742709  0.74517481     0.44200
Cu81       Cu  0.21062536  0.31217055  0.81033117     0.42000
Cu82       Cu  0.28794397  0.21090844  0.86929596     0.43900
N83         N  0.29807995  0.12599046  0.78029805    -0.33700
N84         N  0.31310221  0.13862816  0.82728448    -0.27900
C85         C  0.34464578  0.09821333  0.84087018    -0.04000
C86         C  0.34899552  0.05845456  0.80041208     0.08200
C87         C  0.31951659  0.07723668  0.76232029     0.02000
H88         H  0.36249325  0.09761266  0.87749056     0.09600
H89         H  0.31459932  0.05768314  0.72432199     0.08700
N90         N  0.25821297  0.28378286  0.90783199    -0.35100
N91         N  0.23057972  0.32149582  0.88744739    -0.27300
C92         C  0.21873123  0.36293083  0.92434994    -0.02500
C93         C  0.23944644  0.34990537  0.97026946     0.06100
C94         C  0.26472134  0.29984622  0.95772775     0.04200
H95         H  0.19696663  0.39932610  0.91786261     0.09300
H96         H  0.28811987  0.27700822  0.98196874     0.08100
N97         N  0.35982127  0.96120308  0.16510125    -0.02500
C98         C  0.41422973  0.95607844  0.16033478     0.00100
C99         C  0.43460999  0.90456421  0.15795669    -0.22800
C100        C  0.39152614  0.87659377  0.16025751    -0.23000
C101        C  0.34620071  0.91196518  0.16452404     0.00000
H102        H  0.47638501  0.88892169  0.15238074     0.13800
H103        H  0.39312623  0.83470956  0.15627804     0.13900
N104        N  0.61028139  0.10900080  0.12228902    -0.02500
C105        C  0.55604293  0.11190660  0.12881555     0.00100
C106        C  0.53317097  0.16115418  0.12331036    -0.22800
C107        C  0.57458519  0.18988144  0.11247280    -0.23000
C108        C  0.62171758  0.15729241  0.11183091     0.00000
H109        H  0.49088741  0.17448849  0.12613087     0.13800
H110        H  0.57038981  0.23038714  0.10564419     0.13900
N111        N  0.70005539  0.00015721  0.15030412    -0.26300
N112        N  0.68298164  0.98104349  0.10615859    -0.34100
C113        C  0.64992472  0.01787740  0.08843276     0.02100
C114        C  0.64658218  0.06257393  0.12269529     0.08100
C115        C  0.67760467  0.04977321  0.16229481    -0.05000
H116        H  0.62923065  0.01219819  0.05376371     0.08800
H117        H  0.68291779  0.07434946  0.19735948     0.10000
Cu118      Cu  0.70411716  0.90481627  0.07328749     0.44200
Cu119      Cu  0.75398739  0.95612261  0.19043179     0.42000
Cu120      Cu  0.78771254  0.81758874  0.14025711     0.43900
N121        N  0.73026968  0.82817510  0.04470083    -0.33700
N122        N  0.75975734  0.79539909  0.06937624    -0.27900
C123        C  0.77105586  0.74966719  0.03899747    -0.04000
C124        C  0.74859316  0.75458708  0.99219968     0.08200
C125        C  0.72224431  0.80454251  0.99790570     0.02000
H126        H  0.79482891  0.71650002  0.05048409     0.09600
H127        H  0.69865085  0.82269147  0.97041814     0.08700
N128        N  0.82035739  0.85398523  0.20266281    -0.35100
N129        N  0.80959591  0.90383315  0.21998708    -0.27300
C130        C  0.83753437  0.91362679  0.26113952    -0.02500
C131        C  0.86791656  0.86821274  0.26955452     0.06100
C132        C  0.85476406  0.83101858  0.23255230     0.04200
H133        H  0.83357627  0.95043105  0.28535869     0.09300
H134        H  0.86621284  0.78960423  0.22976912     0.08100
N135        N  0.24122173  0.38195924  0.01930636    -0.02500
C136        C  0.23630071  0.43468239  0.02873367     0.00100
C137        C  0.25010774  0.44909606  0.07838639    -0.22800
C138        C  0.26237220  0.40416199  0.10094283    -0.23000
C139        C  0.25626021  0.36359057  0.06422868     0.00000
H140        H  0.24641456  0.48812862  0.09804265     0.13800
H141        H  0.26914879  0.40156295  0.14171602     0.13900
N142        N  0.12350784  0.64943571  0.93711847    -0.02500
C143        C  0.12164858  0.59716960  0.93218978     0.00100
C144        C  0.09923378  0.58183514  0.88721354    -0.22800
C145        C  0.08742156  0.62570046  0.86298590    -0.23000
C146        C  0.10312296  0.66677125  0.89379858     0.00000
H147        H  0.09541072  0.54244432  0.87175087     0.13800
H148        H  0.07214961  0.62668432  0.82508983     0.13900
N149        N  0.11218475  0.89645852  0.67712956    -0.26300
N150        N  0.08623136  0.85569828  0.68419047    -0.34100
C151        C  0.04821120  0.85432978  0.65102578     0.02100
C152        C  0.04916106  0.89688473  0.62248877     0.08100
C153        C  0.09040198  0.92256763  0.64010008    -0.05000
H154        H  0.01849846  0.82740697  0.65166259     0.08800
H155        H  0.09944440  0.96074354  0.63130791     0.10000
Cu156      Cu  0.09309832  0.81235937  0.74793590     0.44200
Cu157      Cu  0.17006670  0.91965016  0.72414507     0.42000
Cu158      Cu  0.18636291  0.84867684  0.83825201     0.43900
N159        N  0.10326059  0.77720306  0.81652962    -0.33700
N160        N  0.13821763  0.78956006  0.84919305    -0.27900
C161        C  0.14061231  0.75487166  0.88504763    -0.04000
C162        C  0.10495570  0.71899945  0.87496250     0.08200
C163        C  0.08192824  0.73495278  0.83124368     0.02000
H164        H  0.16981072  0.75356280  0.91268348     0.09600
H165        H  0.05478563  0.71482163  0.80896549     0.08700
N166        N  0.23371624  0.90564949  0.81649476    -0.35100
N167        N  0.22806343  0.93175875  0.77514211    -0.27300
C168        C  0.26920616  0.96046038  0.76861216    -0.02500
C169        C  0.30229721  0.95219779  0.80781193     0.06100
C170        C  0.27848900  0.91696194  0.83707712     0.04200
H171        H  0.27730119  0.98108515  0.73456808     0.09300
H172        H  0.29488948  0.89773240  0.86855043     0.08100
N173        N  0.98503127  0.20383826  0.32713830    -0.02500
C174        C  0.97003312  0.19997073  0.37878419     0.00100
C175        C  0.91580572  0.19602253  0.38677346    -0.22800
C176        C  0.89679621  0.19760500  0.33841839    -0.23000
C177        C  0.93992543  0.20324239  0.30270094     0.00000
H178        H  0.89189575  0.19652452  0.42432921     0.13800
H179        H  0.85547872  0.19776882  0.33069616     0.13900
N180        N  0.08367375  0.26608844  0.60000534    -0.02500
C181        C  0.08374266  0.27392212  0.54820063     0.00100
C182        C  0.12561448  0.30099622  0.53211908    -0.22800
C183        C  0.15341803  0.30933935  0.57470902    -0.23000
C184        C  0.12745521  0.28730843  0.61535055     0.00000
H185        H  0.13644875  0.31099227  0.49268761     0.13800
H186        H  0.19080049  0.32612727  0.57491816     0.13900
N187        N  0.96353105  0.22634176  0.66882452    -0.26300
N188        N  0.99137251  0.23857576  0.70824129    -0.34100
C189        C  0.03891900  0.25129680  0.68922149     0.02100
C190        C  0.04264395  0.24676108  0.63461916     0.08100
C191        C  0.99347655  0.23112469  0.62298492    -0.05000
H192        H  0.06600517  0.26727593  0.71448747     0.08800
H193        H  0.97895746  0.22660389  0.58479375     0.10000
Cu194      Cu  0.96191041  0.25256306  0.78699165     0.44200
Cu195      Cu  0.88351139  0.21066290  0.68316600     0.42000
Cu196      Cu  0.82408428  0.26589778  0.81747817     0.43900
N197        N  0.92528375  0.29535268  0.85529475    -0.33700
N198        N  0.87278528  0.30296716  0.86550282    -0.27900
C199        C  0.85940916  0.34349587  0.90267228    -0.04000
C200        C  0.90590995  0.36227565  0.91688393     0.08200
C201        C  0.94681290  0.33056611  0.88578046     0.02000
H202        H  0.81913131  0.36259970  0.91219400     0.09600
H203        H  0.98837309  0.33744931  0.88018499     0.08700
N204        N  0.78551277  0.22169548  0.76492560    -0.35100
N205        N  0.80596195  0.20118330  0.71692935    -0.27300
C206        C  0.76906103  0.17448794  0.69534532    -0.02500
C207        C  0.72409946  0.17789503  0.73186365     0.06100
C208        C  0.73569181  0.20876854  0.77493615     0.04200
H209        H  0.77436252  0.15442115  0.65594499     0.09300
H210        H  0.70966140  0.22114183  0.81101803     0.08100
N211        N  0.87615771  0.44416034  0.97811033    -0.02500
C212        C  0.88612116  0.49447752  0.97675393     0.00100
C213        C  0.92654140  0.49710129  0.93648886    -0.22800
C214        C  0.94180660  0.44774317  0.91295722    -0.23000
C215        C  0.90993280  0.41608997  0.93866006     0.00000
H216        H  0.93941877  0.53169157  0.92131572     0.13800
H217        H  0.96951656  0.43699110  0.87768939     0.13900
N218        N  0.75069186  0.71733873  0.94622122    -0.02500
C219        C  0.75233570  0.66459491  0.94350239     0.00100
C220        C  0.74167356  0.64554648  0.89372958    -0.22800
C221        C  0.73431962  0.68706336  0.86490864    -0.23000
C222        C  0.74040628  0.73045443  0.89770998     0.00000
H223        H  0.74448107  0.60513728  0.87819813     0.13800
H224        H  0.73021425  0.68520272  0.82315504     0.13900
N225        N  0.94438249  0.85107928  0.32506627    -0.02500
C226        C  0.94643057  0.85545022  0.37829535     0.00100
C227        C  0.89530093  0.86494164  0.40452347    -0.22800
C228        C  0.86059112  0.86739503  0.36691867    -0.23000
C229        C  0.89132495  0.85879511  0.31870437     0.00000
H230        H  0.88466931  0.87286194  0.44671930     0.13800
H231        H  0.81765050  0.87726645  0.37394594     0.13900
N232        N  0.00305970  0.92322723  0.60378690    -0.02500
C233        C  0.99985999  0.93734250  0.55430848     0.00100
C234        C  0.95791833  0.97640141  0.55527520    -0.22800
C235        C  0.93549886  0.98730226  0.60650114    -0.23000
C236        C  0.96371581  0.95417302  0.63548875     0.00000
H237        H  0.94240203  0.99250383  0.52165459     0.13800
H238        H  0.90048350  0.01444446  0.62051067     0.13900
N239        N  0.37874406  0.00815323  0.79900017    -0.02500
C240        C  0.43209910  0.99938786  0.80213762     0.00100
C241        C  0.44599174  0.94896714  0.81243564    -0.22800
C242        C  0.39935314  0.92604320  0.81673248    -0.23000
C243        C  0.35862205  0.96304286  0.80812130     0.00000
H244        H  0.48589508  0.93044047  0.81485873     0.14000
H245        H  0.39577320  0.88620347  0.82396382     0.13900
N246        N  0.65099328  0.11890213  0.74685979    -0.02500
C247        C  0.59944635  0.12162963  0.73479575     0.00100
C248        C  0.58837407  0.16322007  0.70619839    -0.22800
C249        C  0.63420456  0.18686231  0.69975240    -0.23000
C250        C  0.67184790  0.15932306  0.72484016     0.00000
H251        H  0.55037444  0.17593609  0.69278387     0.13800
H252        H  0.63897300  0.22169896  0.68063049     0.13900
N253        N  0.90329085  0.91954040  0.75909714    -0.26300
N254        N  0.89335035  0.97053799  0.76623524    -0.34100
C255        C  0.92002471  0.99071404  0.72650245     0.02100
C256        C  0.94787146  0.95054755  0.69206102     0.08100
C257        C  0.93592062  0.90589707  0.71413541    -0.05000
H258        H  0.91250715  0.03075452  0.71853501     0.08800
H259        H  0.94206235  0.86688249  0.69469151     0.10000
Cu260      Cu  0.82447172  0.00667604  0.80991354     0.44200
Cu261      Cu  0.85666952  0.87246639  0.79998222     0.42000
Cu262      Cu  0.71665873  0.92454395  0.81484870     0.43900
N263        N  0.74566760  0.03250382  0.80380060    -0.33700
N264        N  0.70712213  0.00238644  0.79921054    -0.27900
C265        C  0.66586341  0.02947755  0.78048544    -0.04000
C266        C  0.67918154  0.07928787  0.77362450     0.08200
C267        C  0.73020657  0.07920877  0.78901126     0.02000
H268        H  0.63078864  0.01269185  0.76947086     0.09600
H269        H  0.75678972  0.10855715  0.78629094     0.08700
N270        N  0.74482490  0.85341987  0.84014367    -0.35100
N271        N  0.79633932  0.83637149  0.83709490    -0.27300
C272        C  0.80216856  0.79150687  0.85907429    -0.02500
C273        C  0.75207145  0.77943863  0.87673197     0.06100
C274        C  0.71647352  0.81897358  0.86335862     0.04200
H275        H  0.84004988  0.76840850  0.86044883     0.09300
H276        H  0.67326796  0.82246531  0.87009781     0.08100
C277        C  0.48513775  0.03804467  0.73281716    -0.08100
C278        C  0.47201476  0.03430753  0.78661620     0.08100
C279        C  0.50190201  0.05813087  0.82352985    -0.01900
C280        C  0.54390913  0.08585215  0.80627326    -0.06400
C281        C  0.55769629  0.08889775  0.75221642     0.07200
C282        C  0.52772752  0.06464714  0.71540431    -0.01400
Br283      Br  0.54519097  0.06395129  0.64062894    -0.01100
H284        H  0.46328606  0.01859498  0.70407574     0.11100
H285        H  0.56583248  0.10509654  0.83505722     0.09100
Br286      Br  0.48621060  0.05399995  0.89770346    -0.01500
C287        C  0.01229938  0.91026808  0.41096058    -0.08100
C288        C  0.99321479  0.86148746  0.40801866     0.08100
C289        C  0.00034967  0.83077806  0.44991226    -0.01900
C290        C  0.01375833  0.85337352  0.49805217    -0.06400
C291        C  0.02195376  0.90598525  0.50390166     0.07200
C292        C  0.02898943  0.93156614  0.45792539    -0.01400
Br293      Br  0.05053128  0.00022313  0.46059018    -0.01100
H294        H  0.00706364  0.93504159  0.37974085     0.11100
H295        H  0.00985194  0.83216763  0.53239744     0.09100
Br296      Br  0.98069285  0.76152877  0.44636818    -0.01500
C297        C  0.79249012  0.53799975  0.99469569    -0.08100
C298        C  0.84741519  0.54123600  0.99632505     0.08100
C299        C  0.86503541  0.59110910  0.99938219    -0.01900
C300        C  0.83157706  0.63373184  0.98732686    -0.06400
C301        C  0.77843907  0.62898427  0.97806346     0.07200
C302        C  0.75789996  0.58167343  0.98673181    -0.01400
Br303      Br  0.68424374  0.57304047  0.98065157    -0.01100
H304        H  0.77727416  0.50063831  0.99367359     0.11100
H305        H  0.84876555  0.66922392  0.98056357     0.09100
Br306      Br  0.93625676  0.60199001  0.01436048    -0.01500
C307        C  0.02054290  0.28841507  0.48270307    -0.08100
C308        C  0.04943702  0.25302850  0.51016520     0.08100
C309        C  0.05331007  0.19947231  0.49344162    -0.01900
C310        C  0.02783755  0.18225249  0.44995359    -0.06400
C311        C  0.99970580  0.21801047  0.42219508     0.07200
C312        C  0.99572396  0.27137495  0.43915001    -0.01400
Br313      Br  0.95696895  0.32261288  0.40383840    -0.01100
H314        H  0.01854457  0.32970539  0.49439229     0.11100
H315        H  0.03050274  0.14109458  0.43741073     0.09100
Br316      Br  0.09550218  0.14901957  0.52656601    -0.01500
C317        C  0.23489455  0.51016369  0.97622558    -0.08100
C318        C  0.20707439  0.47279391  0.99951868     0.08100
C319        C  0.15069600  0.47881736  0.00386238    -0.01900
C320        C  0.12325034  0.52125679  0.98431500    -0.06400
C321        C  0.15108286  0.55876684  0.96106568     0.07200
C322        C  0.20750783  0.55236888  0.95627438    -0.01400
Br323      Br  0.24921142  0.59750200  0.91885738    -0.01100
H324        H  0.27817808  0.50647732  0.97360117     0.11100
H325        H  0.07996922  0.52472913  0.98671961     0.09100
Br326      Br  0.10952249  0.43105758  0.03791145    -0.01500
C327        C  0.51135402  0.03763010  0.09493769    -0.08100
C328        C  0.52382349  0.06905797  0.13833204     0.08100
C329        C  0.49824686  0.06486793  0.18890727    -0.01900
C330        C  0.46112343  0.02899503  0.19557371    -0.06400
C331        C  0.44884364  0.99744884  0.15210757     0.07200
C332        C  0.47445173  0.00174083  0.10153924    -0.01400
Br333      Br  0.45874942  0.96055978  0.04014675    -0.01100
H334        H  0.52936605  0.04196017  0.05564182     0.11100
H335        H  0.44223972  0.02533716  0.23470076     0.09100
Br336      Br  0.51274091  0.10780358  0.24957645    -0.01500
loop_ 
_geom_bond_atom_site_label_1 
_geom_bond_atom_site_label_2 
_geom_bond_distance 
_geom_bond_site_symmetry_2 
_ccdc_geom_bond_type 
N1            N2   1.321       .  A
N1            C5   1.351       .  A
N1           Cu9   2.102       .  S
N2            C3   1.342       .  A
N2           Cu8   2.054       .  S
C3            C4   1.378       .  A
C3            H6   1.079       .  S
C4            C5   1.390       .  A
C4          N173   1.440   1_455  S
C5            H7   1.082       .  S
Cu8          N11   2.052       .  S
Cu9          N19   2.104       .  S
Cu10         N12   2.090       .  S
Cu10         N18   2.092       .  S
N11          N12   1.321       .  A
N11          C15   1.340       .  A
N12          C13   1.350       .  A
C13          C14   1.388       .  A
C13          H16   1.082       .  S
C14          C15   1.377       .  A
C14         C139   1.472       .  S
C15          H17   1.082       .  S
N18          N19   1.327       .  A
N18          C22   1.349       .  A
N19          C20   1.349       .  A
C20          C21   1.385       .  A
C20          H23   1.078   1_545  S
C21          C22   1.385       .  A
C21          N97   1.447   1_545  S
C22          H24   1.081       .  S
N25          N26   1.321       .  A
N25          C29   1.345       .  A
N25         Cu33   2.087       .  S
N26          C27   1.346       .  A
N26         Cu32   2.065       .  S
C27          C28   1.383       .  A
C27          H30   1.081       .  S
C28          C29   1.387       .  A
C28         C101   1.474       .  S
C29          H31   1.082       .  S
Cu32         N35   2.065       .  S
Cu33         N43   2.087       .  S
Cu34         N36   2.108       .  S
Cu34         N42   2.108       .  S
N35          N36   1.323       .  A
N35          C39   1.345       .  A
N36          C37   1.349   1_455  A
C37          C38   1.390       .  A
C37          H40   1.077       .  S
C38          C39   1.381   1_655  A
C38         N225   1.447       .  S
C39          H41   1.076       .  S
N42          N43   1.326       .  A
N42          C46   1.351       .  A
N43          C44   1.349   1_554  A
C44          C45   1.381       .  A
C44          H47   1.081       .  S
C45          C46   1.387   1_556  A
C45         N142   1.444       .  S
C46          H48   1.082       .  S
N49          N50   1.320       .  A
N49          C53   1.342       .  A
N49         Cu57   2.084       .  S
N50          C51   1.347       .  A
N50         Cu56   2.062       .  S
C51          C52   1.386       .  A
C51          H54   1.075       .  S
C52          C53   1.390       .  A
C52         C108   1.486       .  S
C53          H55   1.081       .  S
Cu56         N59   2.060       .  S
Cu57         N67   2.083       .  S
Cu58         N60   2.098       .  S
Cu58         N66   2.098       .  S
N59          N60   1.322       .  A
N59          C63   1.342       .  A
N60          C61   1.348       .  A
C61          C62   1.390       .  A
C61          H64   1.082       .  S
C62          C63   1.379       .  A
C62         C177   1.474       .  S
C63          H65   1.082       .  S
N66          N67   1.323       .  A
N66          C70   1.348       .  A
N67          C68   1.348       .  A
C68          C69   1.385       .  A
C68          H71   1.081   1_554  S
C69          C70   1.388       .  A
C69         N211   1.440   1_554  S
C70          H72   1.082       .  S
N73          N74   1.325       .  A
N73          C77   1.348       .  A
N73         Cu81   2.087       .  S
N74          C75   1.341       .  A
N74         Cu80   2.065       .  S
C75          C76   1.375       .  A
C75          H78   1.082       .  S
C76          C77   1.383       .  A
C76         C184   1.464       .  S
C77          H79   1.082       .  S
Cu80         N83   2.064       .  S
Cu81         N91   2.086       .  S
Cu82         N84   2.084       .  S
Cu82         N90   2.085       .  S
N83          N84   1.321       .  A
N83          C87   1.348       .  A
N84          C85   1.347       .  A
C85          C86   1.383       .  A
C85          H88   1.082       .  S
C86          C87   1.380       .  A
C86         N239   1.436       .  S
C87          H89   1.081       .  S
N90          N91   1.323       .  A
N90          C94   1.339       .  A
N91          C92   1.355       .  A
C92          C93   1.390       .  A
C92          H95   1.081       .  S
C93          C94   1.385       .  A
C93         N135   1.450   1_556  S
C94          H96   1.076       .  S
N97         C101   1.361       .  A
N97          C98   1.360       .  A
C98          C99   1.380       .  A
C98         C331   1.474       .  S
C99         C100   1.372       .  A
C99         H102   1.082       .  S
C100        C101   1.382       .  A
C100        H103   1.082       .  S
N104        C108   1.364       .  A
N104        C105   1.358       .  A
N104        C114   1.441       .  S
C105        C106   1.376       .  A
C105        C328   1.473       .  S
C106        C107   1.370       .  A
C106        H109   1.082       .  S
C107        C108   1.387       .  A
C107        H110   1.081       .  S
N111        N112   1.323   1_545  A
N111        C115   1.351       .  A
N111       Cu119   2.098   1_545  S
N112        C113   1.347   1_565  A
N112       Cu118   2.077       .  S
C113        C114   1.381       .  A
C113        H116   1.081       .  S
C114        C115   1.387       .  A
C115        H117   1.082       .  S
Cu118       N121   2.077       .  S
Cu119       N129   2.100       .  S
Cu120       N122   2.068       .  S
Cu120       N128   2.069       .  S
N121        N122   1.321       .  A
N121        C125   1.340   1_554  A
N122        C123   1.349       .  A
C123        C124   1.388   1_554  A
C123        H126   1.081       .  S
C124        C125   1.386       .  A
C124        N218   1.448       .  S
C125        H127   1.078       .  S
N128        N129   1.324       .  A
N128        C132   1.345       .  A
N129        C130   1.346       .  A
C130        C131   1.388       .  A
C130        H133   1.082       .  S
C131        C132   1.381       .  A
C131        C229   1.474       .  S
C132        H134   1.081       .  S
N135        C139   1.360       .  A
N135        C136   1.362       .  A
C136        C137   1.381       .  A
C136        C318   1.479   1_554  S
C137        C138   1.373       .  A
C137        H140   1.082       .  S
C138        C139   1.380       .  A
C138        H141   1.082       .  S
N142        C146   1.364       .  A
N142        C143   1.362       .  A
C143        C144   1.379       .  A
C143        C321   1.481       .  S
C144        C145   1.370       .  A
C144        H147   1.083       .  S
C145        C146   1.386       .  A
C145        H148   1.081       .  S
C146        C162   1.489       .  S
N149        N150   1.322       .  A
N149        C153   1.346       .  A
N149       Cu157   2.088       .  S
N150        C151   1.346       .  A
N150       Cu156   2.081       .  S
C151        C152   1.384       .  A
C151        H154   1.080       .  S
C152        C153   1.386       .  A
C152        N232   1.437       .  S
C153        H155   1.082       .  S
Cu156       N159   2.081       .  S
Cu157       N167   2.088       .  S
Cu158       N160   2.082       .  S
Cu158       N166   2.083       .  S
N159        N160   1.320       .  A
N159        C163   1.343       .  A
N160        C161   1.348       .  A
C161        C162   1.389       .  A
C161        H164   1.073       .  S
C162        C163   1.390       .  A
C163        H165   1.081       .  S
N166        N167   1.322       .  A
N166        C170   1.344       .  A
N167        C168   1.349       .  A
C168        C169   1.387       .  A
C168        H171   1.080       .  S
C169        C170   1.386       .  A
C169        C243   1.481       .  S
C170        H172   1.082       .  S
N173        C177   1.356       .  A
N173        C174   1.355       .  A
C174        C175   1.382       .  A
C174        C311   1.471       .  S
C175        C176   1.375       .  A
C175        H178   1.082       .  S
C176        C177   1.381       .  A
C176        H179   1.082       .  S
N180        C184   1.364       .  A
N180        C181   1.361       .  A
N180        C190   1.458       .  S
C181        C182   1.382       .  A
C181        C308   1.472       .  S
C182        C183   1.369       .  A
C182        H185   1.082       .  S
C183        C184   1.377       .  A
C183        H186   1.082       .  S
N187        N188   1.321       .  A
N187        C191   1.355       .  A
N187       Cu195   2.109       .  S
N188        C189   1.338   1_655  A
N188       Cu194   2.065       .  S
C189        C190   1.386       .  A
C189        H192   1.077       .  S
C190        C191   1.399   1_455  A
C191        H193   1.079       .  S
Cu194       N197   2.064       .  S
Cu195       N205   2.111       .  S
Cu196       N198   2.072       .  S
Cu196       N204   2.073       .  S
N197        N198   1.318       .  A
N197        C201   1.343       .  A
N198        C199   1.345       .  A
C199        C200   1.388       .  A
C199        H202   1.080       .  S
C200        C201   1.386       .  A
C200        C215   1.477       .  S
C201        H203   1.082       .  S
N204        N205   1.326       .  A
N204        C208   1.344       .  A
N205        C206   1.352       .  A
C206        C207   1.388       .  A
C206        H209   1.082       .  S
C207        C208   1.378       .  A
C207        C250   1.475       .  S
C208        H210   1.082       .  S
N211        C215   1.359       .  A
N211        C212   1.363       .  A
C212        C213   1.389       .  A
C212        C298   1.494       .  S
C213        C214   1.368       .  A
C213        H216   1.082       .  S
C214        C215   1.377       .  A
C214        H217   1.082       .  S
N218        C222   1.361       .  A
N218        C219   1.365       .  A
C219        C220   1.387       .  A
C219        C301   1.490       .  S
C220        C221   1.372       .  A
C220        H223   1.083       .  S
C221        C222   1.376       .  A
C221        H224   1.082       .  S
C222        C273   1.476       .  S
N225        C229   1.364       .  A
N225        C226   1.364       .  A
C226        C227   1.383       .  A
C226        C288   1.483       .  S
C227        C228   1.368       .  A
C227        H230   1.083       .  S
C228        C229   1.379       .  A
C228        H231   1.082       .  S
N232        C236   1.360   1_455  A
N232        C233   1.360   1_455  A
C233        C234   1.387       .  A
C233        C291   1.487   1_655  S
C234        C235   1.369       .  A
C234        H237   1.082       .  S
C235        C236   1.379       .  A
C235        H238   1.082   1_565  S
C236        C256   1.479       .  S
N239        C243   1.359   1_545  A
N239        C240   1.356   1_545  A
C240        C241   1.380       .  A
C240        C278   1.477   1_565  S
C241        C242   1.376       .  A
C241        H244   1.082       .  S
C242        C243   1.384       .  A
C242        H245   1.082       .  S
N246        C250   1.368       .  A
N246        C247   1.365       .  A
N246        C266   1.455       .  S
C247        C248   1.383       .  A
C247        C281   1.485       .  S
C248        C249   1.371       .  A
C248        H251   1.082       .  S
C249        C250   1.378       .  A
C249        H252   1.082       .  S
N253        N254   1.318       .  A
N253        C257   1.344       .  A
N253       Cu261   2.070       .  S
N254        C255   1.343       .  A
N254       Cu260   2.060   1_565  S
C255        C256   1.386       .  A
C255        H258   1.082   1_565  S
C256        C257   1.387       .  A
C257        H259   1.078       .  S
Cu260       N263   2.061       .  S
Cu261       N271   2.071       .  S
Cu262       N264   2.097   1_565  S
Cu262       N270   2.097       .  S
N263        N264   1.321       .  A
N263        C267   1.339       .  A
N264        C265   1.351       .  A
C265        C266   1.396       .  A
C265        H268   1.080       .  S
C266        C267   1.386       .  A
C267        H269   1.072       .  S
N270        N271   1.324       .  A
N270        C274   1.349       .  A
N271        C272   1.344       .  A
C272        C273   1.380       .  A
C272        H275   1.082       .  S
C273        C274   1.386       .  A
C274        H276   1.082       .  S
C277        C278   1.400       .  A
C277        C282   1.399       .  A
C277        H284   1.084       .  S
C278        C279   1.408       .  A
C279        C280   1.404       .  A
C279       Br286   1.917       .  S
C280        C281   1.405       .  A
C280        H285   1.083       .  S
C281        C282   1.412       .  A
C282       Br283   1.920       .  S
C287        C288   1.404   1_455  A
C287        C292   1.400       .  A
C287        H294   1.083       .  S
C288        C289   1.411   1_655  A
C289        C290   1.405       .  A
C289       Br296   1.917   1_455  S
C290        C291   1.404       .  A
C290        H295   1.083       .  S
C291        C292   1.411       .  A
C292       Br293   1.920   1_565  S
C297        C298   1.405       .  A
C297        C302   1.404       .  A
C297        H304   1.082       .  S
C298        C299   1.415       .  A
C299        C300   1.401       .  A
C299       Br306   1.922   1_556  S
C300        C301   1.404       .  A
C300        H305   1.083       .  S
C301        C302   1.414       .  A
C302       Br303   1.919       .  S
C307        C308   1.400       .  A
C307        C312   1.393   1_455  A
C307        H314   1.084       .  S
C308        C309   1.411       .  A
C309        C310   1.403       .  A
C309       Br316   1.918       .  S
C310        C311   1.402   1_455  A
C310        H315   1.083       .  S
C311        C312   1.407       .  A
C312       Br313   1.920       .  S
C317        C318   1.402       .  A
C317        C322   1.402       .  A
C317        H324   1.083       .  S
C318        C319   1.410   1_556  A
C319        C320   1.402   1_554  A
C319       Br326   1.919       .  S
C320        C321   1.404       .  A
C320        H325   1.084       .  S
C321        C322   1.411       .  A
C322       Br323   1.918       .  S
C327        C328   1.400       .  A
C327        C332   1.398       .  A
C327        H334   1.083       .  S
C328        C329   1.408       .  A
C329        C330   1.402       .  A
C329       Br336   1.918       .  S
C330        C331   1.401   1_545  A
C330        H335   1.083       .  S
C331        C332   1.409   1_565  A
C332       Br333   1.919   1_545  S
