geometry optimzed in LAMMPS
_audit_creation_date              2020-11-30 
_audit_creation_method            'lammps2cif' 
_symmetry_space_group_name_H-M    'P1' 
_symmetry_Int_Tables_number       1 
_symmetry_cell_setting            triclinic 
loop_ 
_symmetry_equiv_pos_as_xyz 
  x,y,z 
_cell_length_a                    22.50178225 
_cell_length_b                    21.379909846783555 
_cell_length_c                    22.79264555658727 
_cell_angle_alpha                 72.42757388515341 
_cell_angle_beta                  76.15469574361978 
_cell_angle_gamma                 94.24945797815892 
loop_ 
_atom_site_label 
_atom_site_type_symbol 
_atom_site_fract_x 
_atom_site_fract_y 
_atom_site_fract_z 
_atom_site_charge 
O1          O  0.12804661  0.92979036  0.99113442    -0.79800
O2          O  0.85233049  0.92253485  0.02329309    -0.64500
O3          O  0.02351228  0.98982494  0.98302260    -1.11100
C4          C  0.97933056  0.96714199  0.20405299     1.07100
O5          O  0.82256524  0.98670720  0.08225400    -0.77700
O6          O  0.91553957  0.07333796  0.09017875    -0.65300
Ni7        Ni  0.08311662  0.95800395  0.92866918     1.34900
C8          C  0.97194015  0.10115505  0.06738016     0.85800
O9          O  0.94135995  0.96977031  0.91154685    -0.78300
O10         O  0.04309179  0.98547779  0.86139912    -0.88500
C11         C  0.81094947  0.94947664  0.05048126     0.85400
O12         O  0.04482221  0.86711377  0.95408896    -0.66700
O13         O  0.92572961  0.97818501  0.19809244    -0.86000
C14         C  0.99376139  0.83498279  0.99310329     0.86200
C15         C  0.98664214  0.98549003  0.86065966     1.07800
H16         H  0.93124683  0.89713658  0.11231533     0.39600
O17         O  0.93832595  0.94418231  0.08818979    -1.08700
O18         O  0.01736638  0.06887390  0.05942050    -0.65300
Ni19       Ni  0.02500504  0.97547407  0.07015186     1.26300
O20         O  0.95060361  0.86317230  0.01626852    -0.65600
O21         O  0.02239774  0.96034696  0.15920227    -0.77900
C22         C  0.14897013  0.96587777  0.01898831     0.85600
O23         O  0.11429070  0.99918082  0.04679207    -0.65000
Ni24       Ni  0.87893026  0.98234980  0.13613993     1.27400
Ni25       Ni  0.93853053  0.95509458  0.00107473     1.26100
H26         H  0.02815077  0.03718140  0.96158093     0.40100
N27         N  0.98514005  0.93144431  0.61871895    -0.35500
N28         N  0.99107069  0.06989377  0.56438829    -0.56100
N29         N  0.98967192  0.05336262  0.43792927    -0.35500
N30         N  0.99015542  0.91628015  0.49169621    -0.56100
C31         C  0.99486473  0.95112434  0.66724365     0.28000
C32         C  0.00282202  0.87134820  0.62691971     0.28000
C33         C  0.01040254  0.11891620  0.42085513     0.28000
C34         C  0.00379207  0.03654367  0.38383207     0.28000
C35         C  0.97455396  0.06549446  0.62711644     0.36700
C36         C  0.98292011  0.13073329  0.53023611     0.36700
C37         C  0.98284633  0.85246946  0.52936362     0.36700
C38         C  0.98083179  0.91528182  0.43530028     0.36700
C39         C  0.01820245  0.90251046  0.70715363    -0.20800
C40         C  0.02366675  0.85226770  0.68139889    -0.20800
C41         C  0.03799303  0.14383246  0.35507858    -0.20800
C42         C  0.03258149  0.09218361  0.33169197    -0.20800
C43         C  0.95597297  0.12399083  0.63300509    -0.21900
C44         C  0.96102236  0.16525454  0.57175141    -0.21900
C45         C  0.96843586  0.81067144  0.49666489    -0.21900
C46         C  0.96709447  0.85049826  0.43715601    -0.21900
C47         C  0.98013707  0.01033437  0.67783101    -0.17200
C48         C  0.99676508  0.83122809  0.58924687    -0.17200
C49         C  0.99126813  0.97218901  0.38051531    -0.17200
C50         C  0.00089026  0.15772148  0.46204544    -0.17200
H51         H  0.03013430  0.90307616  0.75027476     0.15700
H52         H  0.04011864  0.80635357  0.70129002     0.15700
H53         H  0.05984886  0.19414465  0.32633069     0.15700
H54         H  0.04939811  0.09497635  0.28218539     0.15700
H55         H  0.94093802  0.13580923  0.67665181     0.14000
H56         H  0.95038257  0.21533023  0.55914740     0.14000
H57         H  0.96162358  0.75696420  0.51317518     0.14000
H58         H  0.95913126  0.83372371  0.39897741     0.14000
H59         H  0.96139637  0.95387356  0.58608226     0.27200
H60         H  0.96200897  0.02378503  0.48290792     0.27200
N61         N  0.41265441  0.99090057  0.05829633    -0.35500
N62         N  0.42890278  0.92281062  0.96938518    -0.56100
N63         N  0.55715346  0.90504217  0.97906003    -0.35500
N64         N  0.54143667  0.98134926  0.06354113    -0.56100
C65         C  0.36020885  0.99932591  0.03997251     0.28000
C66         C  0.42414427  0.03999709  0.08154368     0.28000
C67         C  0.56050506  0.89902012  0.92109475     0.28000
C68         C  0.61614123  0.91573890  0.98288988     0.28000
C69         C  0.36660843  0.91990170  0.98099696     0.36700
C70         C  0.44710043  0.88997170  0.92782176     0.36700
C71         C  0.51962537  0.00664605  0.11054950     0.36700
C72         C  0.59220048  0.95547880  0.07528556     0.36700
C73         C  0.33755519  0.05387641  0.05243233    -0.20800
C74         C  0.37850105  0.08015236  0.07806622    -0.20800
C75         C  0.62222178  0.90132743  0.88968030    -0.20800
C76         C  0.65724991  0.91127888  0.92899732    -0.20800
C77         C  0.34449519  0.88363612  0.94759912    -0.21900
C78         C  0.39548866  0.86575230  0.91298808    -0.21900
C79         C  0.55640113  0.99576698  0.15264939    -0.21900
C80         C  0.60259204  0.96394140  0.12996169    -0.21900
C81         C  0.33199637  0.95797462  0.01358905    -0.17200
C82         C  0.47024093  0.04420121  0.11286562    -0.17200
C83         C  0.63328501  0.93206546  0.03282079    -0.17200
C84         C  0.50995964  0.89365701  0.89457340    -0.17200
H85         H  0.29615072  0.07296778  0.04360439     0.15700
H86         H  0.37417768  0.12280485  0.09407482     0.15700
H87         H  0.64030242  0.89719084  0.84275275     0.15700
H88         H  0.70730675  0.91742227  0.91793593     0.15700
H89         H  0.29728478  0.87457881  0.94527236     0.14000
H90         H  0.39395145  0.83914417  0.87987567     0.14000
H91         H  0.55164281  0.01019696  0.19480038     0.14000
H92         H  0.64018732  0.94979382  0.15063167     0.14000
H93         H  0.43465953  0.94927475  0.06264184     0.27200
H94         H  0.51676185  0.90073627  0.01460311     0.27200
N95         N  0.94978948  0.54709850  0.98975532    -0.35500
N96         N  0.95361665  0.40600511  0.99298005    -0.56100
N97         N  0.02885400  0.39190616  0.07583517    -0.35500
N98         N  0.01024146  0.52692562  0.08962606    -0.56100
C99         C  0.90295598  0.53502147  0.96488877     0.28000
C100        C  0.94116340  0.60200070  0.00715667     0.28000
C101        C  0.01399613  0.32686335  0.08290817     0.28000
C102        C  0.05056322  0.39486109  0.12515334     0.28000
C103        C  0.92711920  0.42871412  0.94521842     0.36700
C104        C  0.96753364  0.34544497  0.99277144     0.36700
C105        C  0.01148413  0.59338768  0.07578760     0.36700
C106        C  0.05212184  0.51075426  0.12307495     0.36700
C107        C  0.86413065  0.58266406  0.96802403    -0.20800
C108        C  0.88939690  0.62577102  0.99257277    -0.20800
C109        C  0.02797809  0.28795012  0.13718922    -0.20800
C110        C  0.05180613  0.33115097  0.16349834    -0.20800
C111        C  0.92447431  0.38239396  0.91391970    -0.21900
C112        C  0.94979306  0.32945335  0.94432079    -0.21900
C113        C  0.05093743  0.61865441  0.10417627    -0.21900
C114        C  0.07697511  0.56626034  0.13392575    -0.21900
C115        C  0.89514933  0.48392654  0.93754665    -0.17200
C116        C  0.97836444  0.63128238  0.03645110    -0.17200
C117        C  0.08084918  0.45360425  0.12740176    -0.17200
C118        C  0.99133108  0.30301592  0.03940976    -0.17200
H119        H  0.82092717  0.58640075  0.95554180     0.15700
H120        H  0.87013582  0.66798112  0.00161656     0.15700
H121        H  0.02275071  0.23427534  0.15519765     0.15700
H122        H  0.06896301  0.31730678  0.20537982     0.15700
H123        H  0.90382328  0.38524644  0.87507876     0.14000
H124        H  0.95332150  0.28391817  0.93311140     0.14000
H125        H  0.06227222  0.66992933  0.10082586     0.14000
H126        H  0.11389951  0.56940324  0.15637229     0.14000
H127        H  0.98806044  0.52261578  0.99000747     0.27200
H128        H  0.03250881  0.43295301  0.03571834     0.27200
N129        N  0.07082273  0.54331190  0.52018708    -0.35500
N130        N  0.93743070  0.54455207  0.53280413    -0.56100
N131        N  0.95153382  0.50375882  0.42052217    -0.35500
N132        N  0.08424797  0.50244286  0.41520842    -0.56100
C133        C  0.04797017  0.54348866  0.58031570     0.28000
C134        C  0.12846526  0.52718959  0.51476818     0.28000
C135        C  0.88933766  0.49590707  0.44468324     0.28000
C136        C  0.96375379  0.45303353  0.39791330     0.28000
C137        C  0.94759169  0.57974368  0.57069742     0.36700
C138        C  0.88608239  0.56247591  0.51522218     0.36700
C139        C  0.14535994  0.51743975  0.40783040     0.36700
C140        C  0.07760134  0.48313338  0.36608743     0.36700
C141        C  0.09166472  0.52736103  0.61401541    -0.20800
C142        C  0.14260277  0.51681384  0.57257608    -0.20800
C143        C  0.86094063  0.44228171  0.43456711    -0.20800
C144        C  0.90772092  0.41393490  0.40678441    -0.20800
C145        C  0.90147032  0.61926643  0.57743702    -0.21900
C146        C  0.86229760  0.60748458  0.54303637    -0.21900
C147        C  0.17887453  0.50959075  0.35175827    -0.21900
C148        C  0.13571564  0.48631739  0.32598437    -0.21900
C149        C  0.99896517  0.57749242  0.59726321    -0.17200
C150        C  0.16895076  0.52584135  0.45739338    -0.17200
C151        C  0.02417285  0.44045122  0.37240568    -0.17200
C152        C  0.85820824  0.53442459  0.47826667    -0.17200
H153        H  0.08864181  0.52793304  0.66196597     0.15700
H154        H  0.18570858  0.50516979  0.58309706     0.15700
H155        H  0.81187395  0.42312954  0.44933315     0.15700
H156        H  0.89946147  0.36916761  0.39563523     0.15700
H157        H  0.89537252  0.65377453  0.60354385     0.14000
H158        H  0.82133048  0.62993297  0.53851868     0.14000
H159        H  0.22871336  0.51412504  0.33455842     0.14000
H160        H  0.14579882  0.46830619  0.28564787     0.14000
H161        H  0.05251439  0.56525887  0.48241988     0.27200
H162        H  0.98343775  0.54250328  0.41909027     0.27200
O163        O  0.66564973  0.49847526  0.43945982    -0.79800
O164        O  0.38800281  0.50046902  0.44360429    -0.64500
O165        O  0.56123099  0.55501623  0.41545962    -1.11100
C166        C  0.49263563  0.55062992  0.63264256     1.07100
O167        O  0.36762532  0.58352361  0.48036933    -0.77700
O168        O  0.45328091  0.65963268  0.50738852    -0.65300
Ni169      Ni  0.62212020  0.51239345  0.37433784     1.34900
C170        C  0.51079619  0.68226886  0.48572895     0.85800
O171        O  0.48511071  0.52759872  0.34018724    -0.78300
O172        O  0.58620705  0.52349770  0.30347949    -0.88500
C173        C  0.35084087  0.53821695  0.45944476     0.85400
O174        O  0.58027405  0.42292052  0.41498723    -0.66700
O175        O  0.44112667  0.56116400  0.62041133    -0.86000
C176        C  0.52463376  0.39688669  0.44560544     0.86200
C177        C  0.53203943  0.52708293  0.29602092     1.07800
H178        H  0.45669128  0.47878738  0.54157360     0.39600
O179        O  0.46776153  0.52436029  0.51324187    -1.08700
O180        O  0.55258977  0.64565362  0.48034810    -0.65300
Ni181      Ni  0.55340194  0.55056543  0.50300051     1.26300
O182        O  0.48085086  0.43064959  0.45439124    -0.65600
O183        O  0.54044717  0.54449944  0.59206023    -0.77900
C184        C  0.67966026  0.53784522  0.46785015     0.85600
O185        O  0.64117094  0.57169724  0.48928141    -0.65000
Ni186      Ni  0.40789525  0.57148679  0.54822658     1.27400
Ni187      Ni  0.47544823  0.52514263  0.42750003     1.26100
H188        H  0.57002648  0.60120748  0.38902855     0.40100
N189        N  0.44195598  0.51783256  0.05534833    -0.35500
N190        N  0.43338895  0.53051020  0.92410530    -0.56100
N191        N  0.56472642  0.52753540  0.88622009    -0.35500
N192        N  0.57379850  0.52458220  0.01428918    -0.56100
C193        C  0.38145499  0.52230191  0.06162934     0.28000
C194        C  0.45653040  0.52973924  0.10588463     0.28000
C195        C  0.55375546  0.54171287  0.82804995     0.28000
C196        C  0.62642824  0.52994802  0.87699496     0.28000
C197        C  0.37267654  0.51248353  0.95655398     0.36700
C198        C  0.43853930  0.52775418  0.86439403     0.36700
C199        C  0.56871800  0.52064070  0.07586709     0.36700
C200        C  0.63178828  0.51466268  0.98961264     0.36700
C201        C  0.35685309  0.53672401  0.11720999    -0.20800
C202        C  0.40417986  0.54148401  0.14501514    -0.20800
C203        C  0.60939275  0.55339604  0.78130141    -0.20800
C204        C  0.65498483  0.54477872  0.81214034    -0.20800
C205        C  0.33905375  0.49963632  0.91647900    -0.21900
C206        C  0.38056177  0.51046343  0.85800643    -0.21900
C207        C  0.62450956  0.51054982  0.08981662    -0.21900
C208        C  0.66432423  0.50668080  0.03550710    -0.21900
C209        C  0.34671961  0.50929842  0.02106551    -0.17200
C210        C  0.51470955  0.52674942  0.11953356    -0.17200
C211        C  0.65716125  0.51523431  0.92573715    -0.17200
C212        C  0.49496849  0.53824448  0.81623295    -0.17200
H213        H  0.30951213  0.54280327  0.13611295     0.15700
H214        H  0.40018051  0.55150003  0.18948890     0.15700
H215        H  0.61641455  0.56448308  0.73032729     0.15700
H216        H  0.70343299  0.54812741  0.78866940     0.15700
H217        H  0.28974086  0.48340108  0.92795772     0.14000
H218        H  0.36956805  0.50379416  0.81635809     0.14000
H219        H  0.63540046  0.50613904  0.13451184     0.14000
H220        H  0.71224395  0.49996240  0.03042681     0.14000
H221        H  0.46870423  0.49949056  0.02260835     0.27200
H222        H  0.53225874  0.50925859  0.93033377     0.27200
N223        N  0.53624664  0.95089013  0.53136393    -0.35500
N224        N  0.51755352  0.99101942  0.40678441    -0.56100
N225        N  0.50381556  0.12473040  0.41531986    -0.35500
N226        N  0.53046040  0.08705174  0.53775152    -0.56100
C227        C  0.55375395  0.89899137  0.51260038     0.28000
C228        C  0.55659690  0.94841735  0.58296479     0.28000
C229        C  0.50068859  0.13444914  0.35498329     0.28000
C230        C  0.51137133  0.18530326  0.42222344     0.28000
C231        C  0.51761945  0.92549341  0.41503176     0.36700
C232        C  0.49559222  0.01615899  0.35576972     0.36700
C233        C  0.52217719  0.05156735  0.60006215     0.36700
C234        C  0.51153832  0.14623707  0.53613914     0.36700
C235        C  0.58603567  0.86330901  0.55252099    -0.20800
C236        C  0.58841970  0.89489042  0.59657452    -0.20800
C237        C  0.50543815  0.20196871  0.32322706    -0.20800
C238        C  0.51284862  0.23406850  0.36539414    -0.20800
C239        C  0.49766434  0.90918418  0.36798909    -0.21900
C240        C  0.48388714  0.96629109  0.33045968    -0.21900
C241        C  0.49751304  0.08872401  0.63796320    -0.21900
C242        C  0.49229183  0.14913042  0.59736443    -0.21900
C243        C  0.53715378  0.88058793  0.46344595    -0.17200
C244        C  0.54002232  0.98791688  0.62250551    -0.17200
C245        C  0.51064377  0.19722144  0.48002286    -0.17200
C246        C  0.48911849  0.08394214  0.32931806    -0.17200
H247        H  0.60509049  0.81870364  0.55061948     0.15700
H248        H  0.60951984  0.87897506  0.63549476     0.15700
H249        H  0.50258530  0.22593830  0.27507725     0.15700
H250        H  0.51654380  0.28716943  0.35581142     0.15700
H251        H  0.49359555  0.86123597  0.36120682     0.14000
H252        H  0.46741019  0.96971187  0.28905174     0.14000
H253        H  0.48395348  0.07408383  0.68961862     0.14000
H254        H  0.47403653  0.18948276  0.61139001     0.14000
H255        H  0.50428253  0.98021496  0.51655965     0.27200
H256        H  0.49383519  0.07904190  0.45129879     0.27200
C257        C  0.50819628  0.26531466  0.48044600    -0.12200
C258        C  0.51147756  0.32490650  0.46958279    -0.18000
C259        C  0.52886253  0.75313700  0.47006687    -0.12200
C260        C  0.53668278  0.81164422  0.46478428    -0.13800
C261        C  0.51902684  0.52919050  0.18209180    -0.12200
C262        C  0.52373430  0.52953013  0.23409750    -0.13800
C263        C  0.49542154  0.54554295  0.69673812    -0.12200
C264        C  0.49346678  0.54215096  0.75135649    -0.13800
C265        C  0.23484901  0.52776305  0.45230183    -0.12200
C266        C  0.28872478  0.53129950  0.45270351    -0.13800
C267        C  0.74083294  0.54139918  0.47708150    -0.12200
C268        C  0.79389232  0.53980243  0.47937943    -0.13800
C269        C  0.73216022  0.43700384  0.94255950    -0.12300
C270        C  0.72062064  0.49951403  0.90937043     0.09900
C271        C  0.77043220  0.54881101  0.86822946    -0.12300
C272        C  0.83113210  0.53807051  0.86643380    -0.12300
C273        C  0.84126539  0.48122160  0.91114342     0.09900
C274        C  0.79222515  0.42833516  0.94470980    -0.12300
H275        H  0.69409348  0.39799737  0.97328975     0.13900
H276        H  0.76239371  0.59739457  0.84205808     0.13900
H277        H  0.86883855  0.57871811  0.83910549     0.13900
H278        H  0.79907424  0.38348044  0.97866833     0.13900
C279        C  0.25153568  0.43863380  0.10381202    -0.12300
C280        C  0.27850672  0.49336007  0.04801294     0.09900
C281        C  0.24066104  0.53427320  0.01931986    -0.12300
C282        C  0.17682611  0.51978063  0.04471346    -0.12300
C283        C  0.14938953  0.46641320  0.10176961     0.09900
C284        C  0.18733272  0.42558452  0.13095753    -0.12300
H285        H  0.28041895  0.40673608  0.12671786     0.13900
H286        H  0.26058946  0.57705986  0.97677667     0.13900
H287        H  0.14870346  0.55091714  0.01975754     0.13900
H288        H  0.16765867  0.38425375  0.17468670     0.13900
C289        C  0.55724157  0.97607074  0.78645215    -0.12300
C290        C  0.52506237  0.91207283  0.82384793     0.09900
C291        C  0.50424751  0.87017494  0.79361767    -0.12300
C292        C  0.50942271  0.89463531  0.72811279    -0.12300
C293        C  0.53928290  0.95987018  0.69111760     0.09900
C294        C  0.56625452  0.99876923  0.72050885    -0.12300
H295        H  0.57422525  0.00919143  0.80869907     0.13900
H296        H  0.48198560  0.81961813  0.82090051     0.13900
H297        H  0.48891412  0.86304660  0.70657435     0.13900
H298        H  0.59145898  0.04819502  0.69291461     0.13900
C299        C  0.51392542  0.12616647  0.15477960    -0.12300
C300        C  0.46271713  0.08322034  0.15679430     0.09900
C301        C  0.41082906  0.06362236  0.21046339    -0.12300
C302        C  0.41541340  0.07540731  0.26605023    -0.12300
C303        C  0.47286297  0.10323776  0.26822848     0.09900
C304        C  0.52000442  0.13428490  0.21139657    -0.12300
H305        H  0.55349206  0.14313141  0.11282861     0.13900
H306        H  0.37041411  0.03135627  0.21244456     0.13900
H307        H  0.37833229  0.05255316  0.30971486     0.13900
H308        H  0.56421791  0.15707753  0.21238563     0.13900
C309        C  0.96782716  0.71342524  0.66200780    -0.12300
C310        C  0.01037747  0.76338235  0.61121082     0.09900
C311        C  0.06224731  0.74727600  0.57458560    -0.12300
C312        C  0.06453610  0.68159681  0.57925428    -0.12300
C313        C  0.01468823  0.63225154  0.62050234     0.09900
C314        C  0.97120583  0.64690195  0.66796007    -0.12300
H315        H  0.92856112  0.72586663  0.69195476     0.13900
H316        H  0.09652786  0.78584277  0.53685997     0.13900
H317        H  0.09994097  0.67123455  0.54346106     0.13900
H318        H  0.93366620  0.60883186  0.70150208     0.13900
C319        C  0.98689589  0.26298569  0.38259499    -0.12300
C320        C  0.01325279  0.23111408  0.43166199     0.09900
C321        C  0.05353114  0.26927884  0.45045081    -0.12300
C322        C  0.06167598  0.33813409  0.42614406    -0.12300
C323        C  0.03171826  0.37023877  0.38045611     0.09900
C324        C  0.99904250  0.33202629  0.35466633    -0.12300
H325        H  0.95640799  0.23445812  0.36643797     0.13900
H326        H  0.07620300  0.24578237  0.48640264     0.13900
H327        H  0.08806745  0.36609573  0.44650154     0.13900
H328        H  0.97786396  0.35576041  0.31744896     0.13900
C329        C  0.98116855  0.70276416  0.02589390    -0.12200
C330        C  0.98512464  0.76283875  0.01222366    -0.13800
C331        C  0.98416645  0.17307617  0.05231547    -0.12200
C332        C  0.98909587  0.23236755  0.04513028    -0.13800
C333        C  0.69726025  0.93353095  0.03661853    -0.12200
C334        C  0.74930770  0.93985992  0.04263512    -0.13800
C335        C  0.26696568  0.96060524  0.01580344    -0.12200
C336        C  0.21289381  0.96534467  0.01979403    -0.13800
C337        C  0.97403261  0.01296388  0.74263824    -0.12200
C338        C  0.97486479  0.00321885  0.79797564    -0.13800
C339        C  0.99048086  0.96367430  0.26535685    -0.12200
C340        C  0.99266502  0.96509158  0.31794376    -0.13800
loop_ 
_geom_bond_atom_site_label_1 
_geom_bond_atom_site_label_2 
_geom_bond_distance 
_geom_bond_site_symmetry_2 
_ccdc_geom_bond_type 
O1           Ni7   1.917       .  S
O1           C22   1.267   1_556  A
O2          Ni25   1.903       .  S
O2           C11   1.266       .  A
O3           Ni7   1.909       .  S
O3          Ni25   1.899   1_456  S
O3          Ni19   1.925   1_556  S
O3           H26   0.967   1_565  S
C4           O21   1.281   1_655  A
C4           O13   1.277       .  A
C4          C339   1.459       .  S
O5          Ni24   1.954       .  S
O5           C11   1.278       .  A
O6          Ni24   1.918   1_545  S
O6            C8   1.273       .  A
Ni7          O10   1.924       .  S
Ni7          O12   1.920       .  S
C8           O18   1.283   1_655  A
C8          C331   1.460       .  S
O9          Ni25   1.953   1_556  S
O9           C15   1.282       .  A
O10          C15   1.274   1_455  A
C11         C334   1.448       .  S
O12          C14   1.268   1_455  A
O13         Ni24   1.939       .  S
C14          O20   1.272   1_556  A
C14         C330   1.455   1_556  S
C15         C338   1.457   1_565  S
H16          O17   0.969       .  S
O17         Ni25   1.927       .  S
O17         Ni19   1.918   1_655  S
O17         Ni24   1.910       .  S
O18         Ni19   1.963   1_545  S
Ni19         O23   1.937       .  S
Ni19         O21   1.942       .  S
O20         Ni25   1.941       .  S
C22          O23   1.279       .  A
C22         C336   1.444       .  S
N27          C32   1.346   1_655  A
N27          C31   1.353       .  A
N27          H59   1.040       .  S
N28          C35   1.360       .  A
N28          C36   1.350       .  A
N29          C34   1.359   1_655  A
N29          C33   1.349   1_655  A
N29          H60   1.041       .  S
N30          C37   1.348       .  A
N30          C38   1.357       .  A
C31          C39   1.386   1_655  A
C31          C47   1.407   1_565  A
C32          C48   1.405   1_455  A
C32          C40   1.389       .  A
C33          C41   1.393       .  A
C33          C50   1.420       .  A
C34          C49   1.412   1_445  A
C34          C42   1.382       .  A
C35          C47   1.418       .  A
C35          C43   1.382       .  A
C36          C50   1.427   1_655  A
C36          C44   1.391       .  A
C37          C45   1.391       .  A
C37          C48   1.421       .  A
C38          C46   1.382       .  A
C38          C49   1.412       .  A
C39          C40   1.371       .  A
C39          H51   1.082       .  S
C40          H52   1.082       .  S
C41          C42   1.373       .  A
C41          H53   1.082       .  S
C42          H54   1.082       .  S
C43          C44   1.381       .  A
C43          H55   1.082       .  S
C44          H56   1.082       .  S
C45          C46   1.375       .  A
C45          H57   1.081       .  S
C46          H58   1.082       .  S
C47         C337   1.469       .  S
C48         C310   1.466   1_655  S
C49         C340   1.472       .  S
C50         C320   1.485       .  S
N61          C66   1.346   1_565  A
N61          C65   1.350       .  A
N61          H93   1.040       .  S
N62          C69   1.356       .  A
N62          C70   1.348       .  A
N63          C68   1.358       .  A
N63          C67   1.351       .  A
N63          H94   1.040   1_556  S
N64          C71   1.349   1_565  A
N64          C72   1.354       .  A
C65          C73   1.385   1_565  A
C65          C81   1.402       .  A
C66          C82   1.405       .  A
C66          C74   1.388       .  A
C67          C75   1.392       .  A
C67          C84   1.423       .  A
C68          C83   1.413   1_556  A
C68          C76   1.383       .  A
C69          C81   1.415   1_556  A
C69          C77   1.382       .  A
C70          C84   1.420       .  A
C70          C78   1.391       .  A
C71          C79   1.390   1_545  A
C71          C82   1.418       .  A
C72          C80   1.382       .  A
C72          C83   1.405       .  A
C73          C74   1.373       .  A
C73          H85   1.082       .  S
C74          H86   1.082       .  S
C75          C76   1.378       .  A
C75          H87   1.082       .  S
C76          H88   1.082       .  S
C77          C78   1.378       .  A
C77          H89   1.082       .  S
C78          H90   1.079       .  S
C79          C80   1.368       .  A
C79          H91   1.079   1_565  S
C80          H92   1.082       .  S
C81         C335   1.458       .  S
C82         C300   1.474       .  S
C83         C333   1.461       .  S
C84         C290   1.485       .  S
N95         C100   1.360   1_556  A
N95          C99   1.354       .  A
N95         H127   1.041       .  S
N96         C103   1.346       .  A
N96         C104   1.356       .  A
N97         C102   1.344       .  A
N97         C101   1.357       .  A
N97         H128   1.040       .  S
N98         C105   1.356       .  A
N98         C106   1.350       .  A
C99         C107   1.397       .  A
C99         C115   1.431       .  A
C100        C116   1.407       .  A
C100        C108   1.377   1_554  A
C101        C109   1.388       .  A
C101        C118   1.418   1_455  A
C102        C117   1.405       .  A
C102        C110   1.385       .  A
C103        C115   1.415       .  A
C103        C111   1.390       .  A
C104        C118   1.415   1_556  A
C104        C112   1.384       .  A
C105        C113   1.383       .  A
C105        C116   1.409   1_455  A
C106        C114   1.388       .  A
C106        C117   1.413       .  A
C107        C108   1.368       .  A
C107        H119   1.078       .  S
C108        H120   1.083   1_556  S
C109        C110   1.384       .  A
C109        H121   1.082       .  S
C110        H122   1.082       .  S
C111        C112   1.377       .  A
C111        H123   1.083       .  S
C112        H124   1.082       .  S
C113        C114   1.374       .  A
C113        H125   1.082       .  S
C114        H126   1.083       .  S
C115        C273   1.482       .  S
C116        C329   1.468       .  S
C117        C283   1.485       .  S
C118        C332   1.472       .  S
N129        C134   1.353       .  A
N129        C133   1.345       .  A
N129        H161   1.042       .  S
N130        C137   1.351       .  A
N130        C138   1.355       .  A
N131        C136   1.353       .  A
N131        C135   1.353       .  A
N131        H162   1.043       .  S
N132        C139   1.347       .  A
N132        C140   1.340       .  A
C133        C141   1.388       .  A
C133        C149   1.406   1_455  A
C134        C150   1.413       .  A
C134        C142   1.386       .  A
C135        C143   1.377       .  A
C135        C152   1.402       .  A
C136        C151   1.424   1_655  A
C136        C144   1.396       .  A
C137        C149   1.425       .  A
C137        C145   1.395       .  A
C138        C152   1.402       .  A
C138        C146   1.377       .  A
C139        C147   1.385       .  A
C139        C150   1.409       .  A
C140        C148   1.388       .  A
C140        C151   1.405       .  A
C141        C142   1.380       .  A
C141        H153   1.083       .  S
C142        H154   1.082       .  S
C143        C144   1.372       .  A
C143        H155   1.083       .  S
C144        H156   1.076       .  S
C145        C146   1.368       .  A
C145        H157   1.076       .  S
C146        H158   1.083       .  S
C147        C148   1.383       .  A
C147        H159   1.082       .  S
C148        H160   1.083       .  S
C149        C313   1.476   1_655  S
C150        C265   1.456       .  S
C151        C323   1.484       .  S
C152        C268   1.455       .  S
O163       Ni169   1.930       .  S
O163        C184   1.270       .  A
O164       Ni187   1.915       .  S
O164        C173   1.270       .  A
O165       Ni169   1.916       .  S
O165       Ni187   1.915       .  S
O165       Ni181   1.933       .  S
O165        H188   0.965       .  S
C166        O183   1.284       .  A
C166        O175   1.276       .  A
C166        C263   1.449       .  S
O167       Ni186   1.935       .  S
O167        C173   1.273       .  A
O168       Ni186   1.914       .  S
O168        C170   1.269       .  A
Ni169       O172   1.934       .  S
Ni169       O174   1.910       .  S
C170        O180   1.274       .  A
C170        C259   1.450       .  S
O171       Ni187   1.934       .  S
O171        C177   1.276       .  A
O172        C177   1.275       .  A
C173        C266   1.444       .  S
O174        C176   1.268       .  A
O175       Ni186   1.926       .  S
C176        O182   1.277       .  A
C176        C258   1.450       .  S
C177        C262   1.454       .  S
H178        O179   0.967       .  S
O179       Ni187   1.915       .  S
O179       Ni181   1.905       .  S
O179       Ni186   1.907       .  S
O180       Ni181   1.943       .  S
Ni181       O185   1.921       .  S
Ni181       O183   1.943       .  S
O182       Ni187   1.948       .  S
C184        O185   1.271       .  A
C184        C267   1.441       .  S
N189        C194   1.358       .  A
N189        C193   1.348       .  A
N189        H221   1.034       .  S
N190        C197   1.352       .  A
N190        C198   1.358       .  A
N191        C196   1.348       .  A
N191        C195   1.355       .  A
N191        H222   1.033       .  S
N192        C199   1.357       .  A
N192        C200   1.351   1_554  A
C193        C201   1.390       .  A
C193        C209   1.418       .  A
C194        C210   1.418       .  A
C194        C202   1.387       .  A
C195        C203   1.385       .  A
C195        C212   1.413       .  A
C196        C211   1.414       .  A
C196        C204   1.390       .  A
C197        C209   1.425   1_556  A
C197        C205   1.391       .  A
C198        C212   1.418       .  A
C198        C206   1.383       .  A
C199        C207   1.383       .  A
C199        C210   1.417       .  A
C200        C208   1.392   1_556  A
C200        C211   1.427       .  A
C201        C202   1.375       .  A
C201        H213   1.083       .  S
C202        H214   1.082       .  S
C203        C204   1.369       .  A
C203        H215   1.082       .  S
C204        H216   1.080       .  S
C205        C206   1.374       .  A
C205        H217   1.081       .  S
C206        H218   1.082       .  S
C207        C208   1.373       .  A
C207        H219   1.082       .  S
C208        H220   1.082       .  S
C209        C280   1.481       .  S
C210        C261   1.468       .  S
C211        C270   1.478       .  S
C212        C264   1.464       .  S
N223        C228   1.349       .  A
N223        C227   1.356       .  A
N223        H255   1.039       .  S
N224        C231   1.356       .  A
N224        C232   1.350   1_565  A
N225        C230   1.354       .  A
N225        C229   1.347       .  A
N225        H256   1.036       .  S
N226        C233   1.352       .  A
N226        C234   1.358       .  A
C227        C235   1.385       .  A
C227        C243   1.412       .  A
C228        C244   1.418       .  A
C228        C236   1.390       .  A
C229        C237   1.389       .  A
C229        C246   1.410       .  A
C230        C245   1.412       .  A
C230        C238   1.387       .  A
C231        C243   1.410       .  A
C231        C239   1.381       .  A
C232        C246   1.425       .  A
C232        C240   1.393   1_545  A
C233        C241   1.391       .  A
C233        C244   1.426   1_545  A
C234        C242   1.380       .  A
C234        C245   1.414       .  A
C235        C236   1.377       .  A
C235        H247   1.083       .  S
C236        H248   1.082       .  S
C237        C238   1.371       .  A
C237        H249   1.082       .  S
C238        H250   1.082       .  S
C239        C240   1.368       .  A
C239        H251   1.082       .  S
C240        H252   1.079       .  S
C241        C242   1.375       .  A
C241        H253   1.081       .  S
C242        H254   1.082       .  S
C243        C260   1.464       .  S
C244        C293   1.492       .  S
C245        C257   1.464       .  S
C246        C303   1.470       .  S
C257        C258   1.215       .  T
C259        C260   1.215       .  T
C261        C262   1.217       .  T
C263        C264   1.215       .  T
C265        C266   1.211       .  T
C267        C268   1.210       .  T
C269        C270   1.400       .  A
C269        C274   1.388       .  A
C269        H275   1.084       .  S
C270        C271   1.404       .  A
C271        C272   1.395       .  A
C271        H276   1.083       .  S
C272        C273   1.404       .  A
C272        H277   1.084       .  S
C273        C274   1.404       .  A
C274        H278   1.083       .  S
C279        C280   1.408       .  A
C279        C284   1.399       .  A
C279        H285   1.083       .  S
C280        C281   1.396       .  A
C281        C282   1.386       .  A
C281        H286   1.083   1_554  S
C282        C283   1.411       .  A
C282        H287   1.083       .  S
C283        C284   1.402       .  A
C284        H288   1.081       .  S
C289        C290   1.406       .  A
C289        C294   1.391       .  A
C289        H295   1.084   1_565  S
C290        C291   1.401       .  A
C291        C292   1.397       .  A
C291        H296   1.082       .  S
C292        C293   1.410       .  A
C292        H297   1.083       .  S
C293        C294   1.402       .  A
C294        H298   1.083   1_565  S
C299        C300   1.402       .  A
C299        C304   1.389       .  A
C299        H305   1.083       .  S
C300        C301   1.403       .  A
C301        C302   1.390       .  A
C301        H306   1.083       .  S
C302        C303   1.401       .  A
C302        H307   1.083       .  S
C303        C304   1.401       .  A
C304        H308   1.083       .  S
C309        C310   1.403   1_655  A
C309        C314   1.397       .  A
C309        H315   1.083       .  S
C310        C311   1.394       .  A
C311        C312   1.382       .  A
C311        H316   1.084       .  S
C312        C313   1.406       .  A
C312        H317   1.083       .  S
C313        C314   1.403   1_455  A
C314        H318   1.083       .  S
C319        C320   1.409   1_655  A
C319        C324   1.396       .  A
C319        H325   1.083       .  S
C320        C321   1.399       .  A
C321        C322   1.388       .  A
C321        H326   1.083       .  S
C322        C323   1.408       .  A
C322        H327   1.083       .  S
C323        C324   1.401   1_455  A
C324        H328   1.083       .  S
C329        C330   1.218       .  T
C331        C332   1.221       .  T
C333        C334   1.214       .  T
C335        C336   1.212       .  T
C337        C338   1.220       .  T
C339        C340   1.221       .  T
