geometry optimzed in LAMMPS
_audit_creation_date              2020-12-01 
_audit_creation_method            'lammps2cif' 
_symmetry_space_group_name_H-M    'P1' 
_symmetry_Int_Tables_number       1 
_symmetry_cell_setting            triclinic 
loop_ 
_symmetry_equiv_pos_as_xyz 
  x,y,z 
_cell_length_a                    22.96483776 
_cell_length_b                    23.175288190420186 
_cell_length_c                    38.84055403229953 
_cell_angle_alpha                 90.33116184697566 
_cell_angle_beta                  89.72613470229703 
_cell_angle_gamma                 88.20876621954645 
loop_ 
_atom_site_label 
_atom_site_type_symbol 
_atom_site_fract_x 
_atom_site_fract_y 
_atom_site_fract_z 
_atom_site_charge 
O1          O  0.96855559  0.56224547  0.46407864    -0.73000
O2          O  0.97031450  0.43859295  0.53590276    -0.74000
O3          O  0.96475295  0.56058376  0.53727180    -0.62600
O4          O  0.97444958  0.43886080  0.46277132    -0.71000
O5          O  0.07083346  0.44038090  0.46427420    -0.70600
O6          O  0.06122339  0.56227262  0.53845470    -0.61800
O7          O  0.06675917  0.43977394  0.53752844    -0.74400
O8          O  0.06499201  0.56378704  0.46578676    -0.73100
Cu9        Cu  0.96618025  0.49996929  0.49983909     1.04600
Cu10       Cu  0.06929028  0.50150330  0.50146656     1.04300
C11         C  0.01642661  0.58358635  0.45414679     0.93200
C12         C  0.01869308  0.42013030  0.54843916     0.92300
C13         C  0.01155716  0.58056112  0.54969091     0.84500
C14         C  0.02419880  0.41980046  0.45200079     0.90700
C15         C  0.99158879  0.99774305  0.25149497    -0.02600
C16         C  0.99546779  0.00555129  0.74751139    -0.02600
O17         O  0.55241324  0.03242558  0.95786196    -0.73000
O18         O  0.43321153  0.04785866  0.03275811    -0.74000
O19         O  0.55751401  0.04595612  0.03016938    -0.62600
O20         O  0.42897582  0.03314971  0.96041296    -0.71000
O21         O  0.43175337  0.93811166  0.96683890    -0.70600
O22         O  0.55886093  0.95093679  0.03664417    -0.61800
O23         O  0.43488153  0.95281075  0.03907255    -0.74400
O24         O  0.55585872  0.93732136  0.96391012    -0.73100
Cu25       Cu  0.49297559  0.04312367  0.99512071     1.04600
Cu26       Cu  0.49547645  0.94147784  0.00184925     1.04300
C27         C  0.57337464  0.98281935  0.94906741     0.93200
C28         C  0.41424337  0.00290438  0.04738606     0.92300
C29         C  0.57876537  0.00024003  0.04427756     0.84500
C30         C  0.40981498  0.98345213  0.95278232     0.90700
C31         C  0.05153421  0.99898544  0.76954384    -0.03300
C32         C  0.10681474  0.00207345  0.75360461    -0.05900
C33         C  0.15798931  0.99924070  0.77301617    -0.21000
C34         C  0.15567885  0.99026066  0.80862424     0.24800
C35         C  0.10133171  0.98286705  0.82435655    -0.18500
C36         C  0.05029394  0.98610668  0.80509379    -0.08500
C37         C  0.20984198  0.99201711  0.82922435    -0.18800
C38         C  0.21690266  0.96248683  0.85872938    -0.23600
C39         C  0.26828083  0.96812280  0.88129877     0.26800
C40         C  0.28616205  0.92114065  0.90166176    -0.20300
C41         C  0.33270088  0.92585760  0.92445146    -0.10000
C42         C  0.36159557  0.97819030  0.92786966    -0.10500
C43         C  0.34318299  0.02551175  0.90776531    -0.03500
C44         C  0.29712494  0.02050952  0.88460203    -0.18600
H45         H  0.11012798  0.00899444  0.72613430     0.10500
H46         H  0.19950064  0.00437431  0.76019561     0.10600
H47         H  0.09777524  0.97597297  0.85179514     0.10300
H48         H  0.01018914  0.97815098  0.81862298     0.11400
H49         H  0.24495155  0.01796791  0.81963854     0.11500
H50         H  0.18442761  0.93193642  0.86642558     0.13400
H51         H  0.26404375  0.88060056  0.89989437     0.09900
H52         H  0.34545840  0.88874075  0.93978744     0.12000
H53         H  0.36426043  0.06651676  0.91000575     0.08600
H54         H  0.28318123  0.05808718  0.87002670     0.11300
C55         C  0.94001234  0.00599210  0.77049385    -0.03300
C56         C  0.93240856  0.05025318  0.79545591    -0.05900
C57         C  0.88453891  0.05199973  0.81764949    -0.21000
C58         C  0.84191632  0.01030901  0.81532604     0.24800
C59         C  0.84669726  0.96840098  0.78905197    -0.18500
C60         C  0.89471217  0.96663528  0.76671820    -0.08500
C61         C  0.79233831  0.01364309  0.84000681    -0.18800
C62         C  0.75800532  0.96908701  0.84710010    -0.23600
C63         C  0.70943981  0.97334113  0.87248367     0.26800
C64         C  0.69050780  0.92289398  0.88832650    -0.20300
C65         C  0.64574077  0.92555585  0.91291557    -0.11800
C66         C  0.61879899  0.97880414  0.92193995    -0.10500
C67         C  0.63661100  0.02902817  0.90530842    -0.03500
C68         C  0.68115541  0.02635044  0.88076360    -0.18600
H69         H  0.96486818  0.08283083  0.79835792     0.10500
H70         H  0.88123565  0.08576917  0.83703476     0.10600
H71         H  0.81299829  0.93754035  0.78510590     0.10300
H72         H  0.89511103  0.93480730  0.74631556     0.11400
H73         H  0.78610922  0.05381027  0.85422578     0.11500
H74         H  0.76743369  0.92715464  0.83547777     0.13400
H75         H  0.71106550  0.88143569  0.88207495     0.09900
H76         H  0.63276750  0.88605728  0.92513329     0.12000
H77         H  0.61625211  0.07066161  0.91131922     0.08600
H78         H  0.69269462  0.06591180  0.86815978     0.11300
C79         C  0.04850214  0.99551052  0.22971898    -0.03300
C80         C  0.09368215  0.95354045  0.23436349    -0.05900
C81         C  0.14321748  0.95243248  0.21335079    -0.21000
C82         C  0.15041411  0.99387317  0.18765103     0.24800
C83         C  0.10714226  0.03770451  0.18396439    -0.18500
C84         C  0.05767091  0.03898528  0.20509461    -0.08500
C85         C  0.20304776  0.98833473  0.16513693    -0.18800
C86         C  0.21930595  0.02805474  0.14206241    -0.23600
C87         C  0.27124875  0.02023876  0.11924264     0.26800
C88         C  0.29495276  0.06915737  0.10412372    -0.20300
C89         C  0.34232531  0.06368334  0.08149272    -0.10000
C90         C  0.36686234  0.00897340  0.07325161    -0.10500
C91         C  0.34343092  0.95997948  0.08848097    -0.03500
C92         C  0.29598571  0.96543060  0.11106088    -0.18600
H93         H  0.09188446  0.92146567  0.25433374     0.10500
H94         H  0.17628240  0.91876782  0.21729504     0.10600
H95         H  0.11022432  0.07068399  0.16459782     0.10300
H96         H  0.02508134  0.07317396  0.20142512     0.11400
H97         H  0.23020891  0.94967658  0.16843214     0.11500
H98         H  0.19511533  0.06875646  0.14014221     0.13400
H99         H  0.27653142  0.11181602  0.10969384     0.09900
H100        H  0.35909683  0.10232052  0.07003124     0.12000
H101        H  0.36090022  0.91718203  0.08235814     0.08600
H102        H  0.27803284  0.92635863  0.12109350     0.11300
C103        C  0.62727038  0.00400712  0.06916201    -0.03300
C104        C  0.66081000  0.05363120  0.07085468    -0.05900
C105        C  0.70864521  0.05576806  0.09295641    -0.21000
C106        C  0.72297925  0.00907535  0.11446809     0.24800
C107        C  0.68897322  0.95975427  0.11325800    -0.18500
C108        C  0.64186780  0.95710136  0.09063282    -0.08500
C109        C  0.77584889  0.01131926  0.13612955    -0.18800
C110        C  0.77932818  0.98797212  0.16774031    -0.23600
C111        C  0.83334584  0.98977176  0.18847727     0.26800
C112        C  0.82987454  0.99725860  0.22424363    -0.20300
C113        C  0.88060576  0.99980217  0.24396541    -0.10000
C114        C  0.93644243  0.99523884  0.22847494    -0.10500
C115        C  0.93896672  0.98350643  0.19268788    -0.03500
C116        C  0.88831565  0.98181187  0.17300781    -0.18600
H117        H  0.65096277  0.09028388  0.05446924     0.10500
H118        H  0.73462471  0.09399590  0.09325536     0.10600
H119        H  0.69985059  0.92258001  0.12900277     0.10300
H120        H  0.61702365  0.91815536  0.08981785     0.11400
H121        H  0.81237284  0.03503990  0.12623058     0.11500
H122        H  0.74098953  0.96952253  0.17928354     0.13400
H123        H  0.78783888  0.00200685  0.23688408     0.09900
H124        H  0.87644758  0.00617980  0.27153034     0.12000
H125        H  0.97966564  0.97421315  0.17948036     0.08600
H126        H  0.89215936  0.97289346  0.14567337     0.11300
C127        C  0.98725448  0.94439032  0.27541015    -0.03300
C128        C  0.98545559  0.88871174  0.26037271    -0.05900
C129        C  0.98239315  0.83924641  0.28061595    -0.21000
C130        C  0.98145085  0.84369211  0.31653873     0.24800
C131        C  0.98005709  0.89863284  0.33188884    -0.18500
C132        C  0.98146181  0.94829627  0.31165364    -0.08500
C133        C  0.98025413  0.79056252  0.33751012    -0.18800
C134        C  0.01139909  0.78466225  0.36658549    -0.23600
C135        C  0.01243080  0.73119777  0.38738155     0.26800
C136        C  0.06342568  0.71513689  0.40508883    -0.20300
C137        C  0.06523737  0.66608835  0.42587529    -0.10000
C138        C  0.01558602  0.63279790  0.42999718    -0.10500
C139        C  0.96438316  0.64902447  0.41234577    -0.03500
C140        C  0.96289821  0.69758471  0.39108456    -0.18600
H141        H  0.98752602  0.88354469  0.23265628     0.10500
H142        H  0.98214241  0.79728668  0.26819456     0.10600
H143        H  0.97654674  0.90325003  0.35960243     0.10300
H144        H  0.97713188  0.98924005  0.32488439     0.11400
H145        H  0.95674075  0.75418691  0.32751426     0.11500
H146        H  0.03974081  0.81903231  0.37437973     0.13400
H147        H  0.10196570  0.74063525  0.40281203     0.09900
H148        H  0.10516432  0.65508640  0.43940483     0.12000
H149        H  0.92530280  0.62452381  0.41522577     0.08600
H150        H  0.92251307  0.70968873  0.37836835     0.11300
C151        C  0.99413752  0.05556157  0.27191863    -0.03300
C152        C  0.95575118  0.10321004  0.26576556    -0.05900
C153        C  0.95862246  0.15386553  0.28530819    -0.21000
C154        C  0.00063264  0.15957312  0.31107307     0.24800
C155        C  0.04173140  0.11405359  0.31580714    -0.18500
C156        C  0.03934351  0.06360704  0.29590427    -0.08500
C157        C  0.99761752  0.21224544  0.33337326    -0.18800
C158        C  0.04091675  0.22934971  0.35406338    -0.23600
C159        C  0.03505926  0.28010649  0.37776425     0.26800
C160        C  0.08553664  0.30717905  0.38890121    -0.20300
C161        C  0.08202669  0.35315848  0.41246468    -0.10000
C162        C  0.02782150  0.37292126  0.42570003    -0.10500
C163        C  0.97724133  0.34593411  0.41449302    -0.03500
C164        C  0.98075525  0.29997646  0.39094107    -0.18600
H165        H  0.92342673  0.10238086  0.24569358     0.10500
H166        H  0.92734109  0.18877136  0.28039305     0.10600
H167        H  0.07491378  0.11620538  0.33535898     0.10300
H168        H  0.07164871  0.02939982  0.30024900     0.11400
H169        H  0.95769080  0.23846180  0.33223041     0.11500
H170        H  0.08285802  0.20654553  0.35323500     0.13400
H171        H  0.12795732  0.29251188  0.37943872     0.09900
H172        H  0.12188929  0.37280368  0.42059252     0.12000
H173        H  0.93484770  0.35957586  0.42444666     0.08600
H174        H  0.94095038  0.27918465  0.38398903     0.11300
C175        C  0.00837933  0.62514392  0.57716239    -0.03300
C176        C  0.95759097  0.63347541  0.59714544    -0.05900
C177        C  0.95472652  0.67574221  0.62303530    -0.21000
C178        C  0.00194107  0.71144527  0.62888468     0.24800
C179        C  0.05306099  0.70266506  0.60919880    -0.18500
C180        C  0.05630145  0.65976542  0.58372735    -0.08500
C181        C  0.99667383  0.75753172  0.65554981    -0.18800
C182        C  0.02153865  0.80891910  0.65171263    -0.23600
C183        C  0.01310694  0.85764223  0.67637873     0.26800
C184        C  0.01547747  0.91399338  0.66389345    -0.20300
C185        C  0.00887619  0.96135177  0.68605804    -0.10000
C186        C  0.99924942  0.95395701  0.72177142    -0.10500
C187        C  0.99978724  0.89676302  0.73426981    -0.03500
C188        C  0.00558096  0.84929147  0.71189408    -0.18600
H189        H  0.92017906  0.60705474  0.59290911     0.10500
H190        H  0.91507731  0.68140459  0.63806502     0.10600
H191        H  0.09076500  0.72853984  0.61366054     0.10300
H192        H  0.09612663  0.65416580  0.56886477     0.11400
H193        H  0.96771591  0.75082335  0.67725853     0.11500
H194        H  0.04541987  0.81734627  0.62814151     0.13400
H195        H  0.02279023  0.92151836  0.63671517     0.09900
H196        H  0.01346003  0.00344854  0.67482143     0.12000
H197        H  0.99549362  0.88891997  0.76162083     0.08600
H198        H  0.00575422  0.80625375  0.72254162     0.11300
C199        C  0.99093070  0.06408707  0.72832435    -0.03300
C200        C  0.94230532  0.07515561  0.70691937    -0.05900
C201        C  0.93683814  0.12597588  0.68802509    -0.21000
C202        C  0.97963910  0.16751645  0.68987631     0.24800
C203        C  0.02592914  0.15924539  0.71301547    -0.18500
C204        C  0.03101526  0.10869119  0.73239764    -0.08500
C205        C  0.97455961  0.21847113  0.66705798    -0.18800
C206        C  0.02130274  0.24563724  0.65480144    -0.23600
C207        C  0.01863336  0.29196809  0.62836692     0.26800
C208        C  0.07127434  0.31093851  0.61451054    -0.20300
C209        C  0.07145538  0.35259668  0.58864765    -0.10000
C210        C  0.01883139  0.37623560  0.57594633    -0.10500
C211        C  0.96612878  0.35810494  0.59011783    -0.03500
C212        C  0.96591224  0.31672545  0.61610955    -0.18600
H213        H  0.90917008  0.04324764  0.70409480     0.10500
H214        H  0.89988737  0.13198851  0.67103487     0.10600
H215        H  0.05793972  0.19202688  0.71653875     0.10300
H216        H  0.06623065  0.10564445  0.75063585     0.11400
H217        H  0.93129968  0.22976735  0.65785317     0.11500
H218        H  0.06440992  0.23074216  0.66284259     0.13400
H219        H  0.11257691  0.29300058  0.62348574     0.09900
H220        H  0.11285000  0.36594515  0.57843440     0.12000
H221        H  0.92482554  0.37602970  0.58117756     0.08600
H222        H  0.92414240  0.30482624  0.62622589     0.11300
loop_ 
_geom_bond_atom_site_label_1 
_geom_bond_atom_site_label_2 
_geom_bond_distance 
_geom_bond_site_symmetry_2 
_ccdc_geom_bond_type 
O1           Cu9   2.011       .  S
O1           C11   1.278   1_655  A
O2           Cu9   2.003       .  S
O2           C12   1.278   1_655  A
O3           Cu9   2.015       .  S
O3           C13   1.279   1_655  A
O4           Cu9   2.018       .  S
O4           C14   1.280   1_655  A
O5          Cu10   2.017       .  S
O5           C14   1.279       .  A
O6          Cu10   2.010       .  S
O6           C13   1.278       .  A
O7          Cu10   2.010       .  S
O7           C12   1.278       .  A
O8          Cu10   2.007       .  S
O8           C11   1.278       .  A
Cu9         Cu10   2.370   1_655  S
C11         C138   1.481       .  S
C12         C210   1.479       .  S
C13         C175   1.481       .  S
C14         C162   1.487       .  S
C15          C79   1.553   1_655  S
C15         C114   1.556       .  S
C15         C127   1.556       .  S
C15         C151   1.556   1_565  S
C16          C31   1.553   1_645  S
C16          C55   1.551       .  S
C16         C186   1.554   1_545  S
C16         C199   1.552       .  S
O17         Cu25   1.994       .  S
O17          C27   1.276   1_545  A
O18         Cu25   2.001   1_554  S
O18          C28   1.277       .  A
O19         Cu25   2.020   1_554  S
O19          C29   1.280       .  A
O20         Cu25   2.017       .  S
O20          C30   1.279   1_545  A
O21         Cu26   2.005   1_556  S
O21          C30   1.278       .  A
O22         Cu26   2.007       .  S
O22          C29   1.278   1_565  A
O23         Cu26   2.012       .  S
O23          C28   1.279   1_565  A
O24         Cu26   2.018   1_556  S
O24          C27   1.280       .  A
Cu25        Cu26   2.371   1_546  S
C27          C66   1.480       .  S
C28          C90   1.480       .  S
C29         C103   1.483       .  S
C30          C42   1.481       .  S
C31          C32   1.414   1_565  A
C31          C36   1.415       .  A
C32          C33   1.399   1_545  A
C32          H45   1.083       .  S
C33          C34   1.401       .  A
C33          H46   1.084   1_565  S
C34          C35   1.403       .  A
C34          C37   1.484       .  S
C35          C36   1.394       .  A
C35          H47   1.082       .  S
C36          H48   1.080       .  S
C37          C38   1.346       .  D
C37          H49   1.086   1_565  S
C38          C39   1.482       .  S
C38          H50   1.086       .  S
C39          C40   1.402       .  A
C39          C44   1.407   1_565  A
C40          C41   1.397       .  A
C40          H51   1.084       .  S
C41          C42   1.406       .  A
C41          H52   1.083       .  S
C42          C43   1.405   1_565  A
C43          C44   1.399       .  A
C43          H53   1.083       .  S
C44          H54   1.082       .  S
C55          C56   1.414       .  A
C55          C60   1.412   1_545  A
C56          C57   1.393       .  A
C56          H69   1.083       .  S
C57          C58   1.400       .  A
C57          H70   1.084       .  S
C58          C59   1.406   1_545  A
C58          C61   1.485       .  S
C59          C60   1.399       .  A
C59          H71   1.081       .  S
C60          H72   1.079       .  S
C61          C62   1.348   1_545  D
C61          H73   1.085       .  S
C62          C63   1.486       .  S
C62          H74   1.084       .  S
C63          C64   1.404       .  A
C63          C68   1.406   1_565  A
C64          C65   1.400       .  A
C64          H75   1.083       .  S
C65          C66   1.405       .  A
C65          H76   1.083       .  S
C66          C67   1.405   1_565  A
C67          C68   1.395       .  A
C67          H77   1.083       .  S
C68          H78   1.081       .  S
C79          C80   1.413       .  A
C79          C84   1.413   1_565  A
C80          C81   1.396       .  A
C80          H93   1.079       .  S
C81          C82   1.402       .  A
C81          H94   1.084       .  S
C82          C83   1.407   1_565  A
C82          C85   1.490       .  S
C83          C84   1.398       .  A
C83          H95   1.079       .  S
C84          H96   1.083       .  S
C85          C86   1.348   1_565  D
C85          H97   1.084       .  S
C86          C87   1.489       .  S
C86          H98   1.083       .  S
C87          C88   1.403       .  A
C87          C92   1.409   1_545  A
C88          C89   1.398       .  A
C88          H99   1.083       .  S
C89          C90   1.406       .  A
C89         H100   1.083       .  S
C90          C91   1.404   1_545  A
C91          C92   1.398       .  A
C91         H101   1.083       .  S
C92         H102   1.081       .  S
C103        C104   1.405       .  A
C103        C108   1.407   1_545  A
C104        C105   1.399       .  A
C104        H117   1.083       .  S
C105        C106   1.403       .  A
C105        H118   1.083       .  S
C106        C107   1.405   1_545  A
C106        C109   1.483       .  S
C107        C108   1.400       .  A
C107        H119   1.083       .  S
C108        H120   1.083       .  S
C109        C110   1.346   1_545  D
C109        H121   1.087       .  S
C110        C111   1.484       .  S
C110        H122   1.087       .  S
C111        C112   1.401       .  A
C111        C116   1.402       .  A
C112        C113   1.400       .  A
C112        H123   1.083   1_565  S
C113        C114   1.415       .  A
C113        H124   1.083   1_565  S
C114        C115   1.415       .  A
C115        C116   1.396       .  A
C115        H125   1.079       .  S
C116        H126   1.083       .  S
C127        C128   1.415       .  A
C127        C132   1.415       .  A
C128        C129   1.397       .  A
C128        H141   1.083       .  S
C129        C130   1.398       .  A
C129        H142   1.083       .  S
C130        C131   1.402       .  A
C130        C133   1.481       .  S
C131        C132   1.399       .  A
C131        H143   1.083       .  S
C132        H144   1.078       .  S
C133        C134   1.345   1_655  D
C133        H145   1.086       .  S
C134        C135   1.483       .  S
C134        H146   1.087       .  S
C135        C136   1.402       .  A
C135        C140   1.406   1_455  A
C136        C137   1.398       .  A
C136        H147   1.083       .  S
C137        C138   1.406       .  A
C137        H148   1.083       .  S
C138        C139   1.406   1_455  A
C139        C140   1.399       .  A
C139        H149   1.083       .  S
C140        H150   1.083       .  S
C151        C152   1.413       .  A
C151        C156   1.414   1_655  A
C152        C153   1.398       .  A
C152        H165   1.080       .  S
C153        C154   1.402   1_655  A
C153        H166   1.083       .  S
C154        C155   1.407       .  A
C154        C157   1.492   1_455  S
C155        C156   1.400       .  A
C155        H167   1.080       .  S
C156        H168   1.083       .  S
C157        C158   1.349   1_655  D
C157        H169   1.085       .  S
C158        C159   1.492       .  S
C158        H170   1.084       .  S
C159        C160   1.404       .  A
C159        C164   1.409   1_455  A
C160        C161   1.401       .  A
C160        H171   1.084       .  S
C161        C162   1.407       .  A
C161        H172   1.083       .  S
C162        C163   1.406   1_455  A
C163        C164   1.400       .  A
C163        H173   1.083       .  S
C164        H174   1.081       .  S
C175        C176   1.406   1_455  A
C175        C180   1.406       .  A
C176        C177   1.400       .  A
C176        H189   1.083       .  S
C177        C178   1.403   1_655  A
C177        H190   1.083       .  S
C178        C179   1.407       .  A
C178        C181   1.485   1_455  S
C179        C180   1.399       .  A
C179        H191   1.083       .  S
C180        H192   1.083       .  S
C181        C182   1.345   1_655  D
C181        H193   1.086       .  S
C182        C183   1.484       .  S
C182        H194   1.087       .  S
C183        C184   1.398       .  A
C183        C188   1.405       .  A
C184        C185   1.395       .  A
C184        H195   1.084       .  S
C185        C186   1.416   1_455  A
C185        H196   1.079   1_565  S
C186        C187   1.414       .  A
C187        C188   1.401   1_655  A
C187        H197   1.083       .  S
C188        H198   1.082       .  S
C199        C200   1.413       .  A
C199        C204   1.414   1_655  A
C200        C201   1.394       .  A
C200        H213   1.083       .  S
C201        C202   1.399       .  A
C201        H214   1.084       .  S
C202        C203   1.405   1_655  A
C202        C205   1.483       .  S
C203        C204   1.398       .  A
C203        H215   1.082       .  S
C204        H216   1.079       .  S
C205        C206   1.348   1_655  D
C205        H217   1.082       .  S
C206        C207   1.490       .  S
C206        H218   1.086       .  S
C207        C208   1.405       .  A
C207        C212   1.410   1_455  A
C208        C209   1.397       .  A
C208        H219   1.084       .  S
C209        C210   1.404       .  A
C209        H220   1.083       .  S
C210        C211   1.404   1_455  A
C211        C212   1.397       .  A
C211        H221   1.083       .  S
C212        H222   1.079       .  S
