geometry optimzed in LAMMPS
_audit_creation_date              2020-12-01 
_audit_creation_method            'lammps2cif' 
_symmetry_space_group_name_H-M    'P1' 
_symmetry_Int_Tables_number       1 
_symmetry_cell_setting            triclinic 
loop_ 
_symmetry_equiv_pos_as_xyz 
  x,y,z 
_cell_length_a                    31.57151396 
_cell_length_b                    31.95576750102866 
_cell_length_c                    58.817587490073294 
_cell_angle_alpha                 89.42670065930909 
_cell_angle_beta                  90.69652270823919 
_cell_angle_gamma                 90.65616247314891 
loop_ 
_atom_site_label 
_atom_site_type_symbol 
_atom_site_fract_x 
_atom_site_fract_y 
_atom_site_fract_z 
_atom_site_charge 
N1          N  0.70580551  0.04063466  0.92628859    -0.26100
N2          N  0.68110802  0.07137695  0.93272483    -0.34000
C3          C  0.68016066  0.07212714  0.95554303     0.02200
C4          C  0.70513719  0.04009138  0.96391337     0.08300
C5          C  0.72086343  0.02068451  0.94489278    -0.04800
H6          H  0.66090769  0.09306483  0.96529049     0.08900
H7          H  0.74138837  0.99381372  0.94457547     0.10100
Cu8        Cu  0.64475523  0.10699353  0.91053147     0.44200
Cu9        Cu  0.71754334  0.02751334  0.89249077     0.42000
Cu10       Cu  0.64597802  0.07660458  0.85203148     0.43900
N11         N  0.60197127  0.12865895  0.88636023    -0.33500
N12         N  0.60156724  0.11641003  0.86498894    -0.27700
C13         C  0.56788565  0.13292724  0.85415188    -0.03800
C14         C  0.54578876  0.15662164  0.86951827     0.08400
C15         C  0.56843351  0.15318759  0.88976564     0.02200
H16         H  0.55978168  0.12732900  0.83652135     0.09800
H17         H  0.55987715  0.16552225  0.90611894     0.08900
N18         N  0.70122287  0.04760862  0.84309207    -0.34900
N19         N  0.72794244  0.03026053  0.85776231    -0.27100
C20         C  0.76525916  0.02478418  0.84746951    -0.02400
C21         C  0.76197757  0.03999254  0.82540303     0.06300
C22         C  0.72070616  0.05354499  0.82316937     0.04300
H23         H  0.79413477  0.01594182  0.85628000     0.09400
H24         H  0.70746190  0.07129250  0.80908170     0.08300
N25         N  0.19035596  0.19383874  0.93150344    -0.26100
N26         N  0.22980972  0.20462517  0.93641110    -0.34000
C27         C  0.23704022  0.19857396  0.95869333     0.02200
C28         C  0.20015793  0.18336959  0.96842364     0.08300
C29         C  0.17111773  0.18073582  0.95060265    -0.04800
H30         H  0.26762647  0.20277355  0.96688801     0.08900
H31         H  0.13879417  0.16926105  0.95125857     0.10100
Cu32       Cu  0.27296636  0.22186371  0.91205053     0.44200
Cu33       Cu  0.16786819  0.19340762  0.89850149     0.42000
Cu34       Cu  0.24473615  0.21035596  0.85254647     0.43900
N35         N  0.31575142  0.22575400  0.88602459    -0.33500
N36         N  0.30634692  0.21992849  0.86433024    -0.27700
C37         C  0.34263490  0.21601071  0.85278091    -0.03800
C38         C  0.37633347  0.21969381  0.86803378     0.08400
C39         C  0.35791171  0.22610365  0.88885997     0.02200
H40         H  0.34418782  0.20827689  0.83495381     0.09800
H41         H  0.37376446  0.22644150  0.90527019     0.08900
N42         N  0.18109703  0.19549975  0.84749896    -0.34900
N43         N  0.15413430  0.18906002  0.86426606    -0.27100
C44         C  0.11686931  0.17606482  0.85562387    -0.02400
C45         C  0.12027091  0.17428136  0.83232151     0.06300
C46         C  0.16126899  0.18709088  0.82762409     0.04300
H47         H  0.08963380  0.16732775  0.86568099     0.09400
H48         H  0.17621939  0.18804277  0.81117094     0.08300
C49         C  0.90698605  0.09524028  0.77173044     0.87700
C50         C  0.90206653  0.13435092  0.75628527    -0.52600
C51         C  0.93849357  0.14640467  0.74577175     0.10600
C52         C  0.97628855  0.11813885  0.75084634     0.21500
C53         C  0.92409077  0.06226963  0.75540396    -0.53300
C54         C  0.96047885  0.07400523  0.74455201     0.10700
C55         C  0.94419868  0.10559320  0.78769206    -0.52800
C56         C  0.98045621  0.11754565  0.77688543     0.11300
H57         H  0.87246404  0.14990034  0.75251854     0.15800
H58         H  0.00539752  0.12826006  0.74184112     0.01500
H59         H  0.90872001  0.03217822  0.75267347     0.16100
H60         H  0.94163643  0.10440660  0.80609042     0.15900
N61         N  0.14001033  0.88631582  0.60146933    -0.26100
N62         N  0.14793963  0.84597170  0.59967202    -0.34000
C63         C  0.15927526  0.83789722  0.57827283     0.02200
C64         C  0.15808107  0.87471236  0.56573915     0.08300
C65         C  0.14602614  0.90492157  0.58110577    -0.04800
H66         H  0.16323423  0.80667701  0.57173265     0.08900
H67         H  0.13906035  0.93736504  0.57743943     0.10100
Cu68       Cu  0.13091627  0.80083090  0.62329936     0.44200
Cu69       Cu  0.11251657  0.91216298  0.62992434     0.42000
Cu70       Cu  0.05687149  0.83357286  0.66410816     0.43900
N71         N  0.09384606  0.75909719  0.64151375    -0.33500
N72         N  0.06487839  0.77139801  0.65591818    -0.27700
C73         C  0.04119889  0.73816403  0.66226278    -0.03800
C74         C  0.05611385  0.70320022  0.65131446     0.08400
C75         C  0.08962656  0.71764645  0.63836131     0.02200
H76         H  0.01414892  0.73967043  0.67332943     0.09800
H77         H  0.10747275  0.69998765  0.62622649     0.08900
N78         N  0.05611460  0.89718925  0.67022175    -0.34900
N79         N  0.07724439  0.92589460  0.65843181    -0.27100
C80         C  0.06962381  0.96382458  0.66720133    -0.02400
C81         C  0.04217206  0.95844593  0.68515722     0.06300
C82         C  0.03418047  0.91599880  0.68654506     0.04300
H83         H  0.08184227  0.99314343  0.66048589     0.09400
H84         H  0.01355152  0.89995508  0.69842162     0.08300
N85         N  0.86654153  0.37111417  0.59297633    -0.26100
N86         N  0.86661590  0.41225325  0.59080395    -0.34000
C87         C  0.85046606  0.42276406  0.57039902     0.02200
C88         C  0.83960173  0.38654688  0.55893225     0.08300
C89         C  0.85034365  0.35420928  0.57380265    -0.04800
H90         H  0.84980180  0.45443836  0.56374358     0.08900
H91         H  0.84804046  0.32096421  0.57066997     0.10100
Cu92       Cu  0.89598649  0.45223589  0.61342850     0.44200
Cu93       Cu  0.89281241  0.34188365  0.62136457     0.42000
Cu94       Cu  0.96020984  0.40877516  0.65827204     0.43900
N95         N  0.93823641  0.48720916  0.63251384    -0.33500
N96         N  0.96349993  0.47133976  0.64837040    -0.27700
C97         C  0.98932349  0.50194042  0.65620265    -0.03800
C98         C  0.97941778  0.53878325  0.64476999     0.08400
C99         C  0.94692414  0.52815783  0.62990005     0.02200
H100        H  0.01316329  0.49776292  0.66936818     0.09800
H101        H  0.93148829  0.54840351  0.61757840     0.08900
N102        N  0.94522247  0.34635774  0.66499274    -0.34900
N103        N  0.92102835  0.32266685  0.65170301    -0.27100
C104        C  0.91646219  0.28471132  0.66141449    -0.02400
C105        C  0.93875959  0.28422746  0.68181399     0.06300
C106        C  0.95656114  0.32393739  0.68354225     0.04300
H107        H  0.89714955  0.25971936  0.65438574     0.09400
H108        H  0.97625302  0.33581630  0.69725514     0.08300
N109        N  0.12420491  0.87672407  0.43214116    -0.26100
N110        N  0.13142095  0.83629432  0.43494029    -0.34000
C111        C  0.14377436  0.82917761  0.45656410     0.02200
C112        C  0.14419152  0.86682810  0.46802172     0.08300
C113        C  0.13164702  0.89630069  0.45195348    -0.04800
H114        H  0.14940130  0.79841754  0.46375588     0.08900
H115        H  0.12704658  0.92939221  0.45456821     0.10100
Cu116      Cu  0.11797907  0.79112242  0.41071187     0.44200
Cu117      Cu  0.10040570  0.90329645  0.40236861     0.42000
Cu118      Cu  0.07246067  0.82945153  0.35865850     0.43900
N119        N  0.08947203  0.75245293  0.38674002    -0.33500
N120        N  0.07199917  0.76706519  0.36778865    -0.27700
C121        C  0.04854305  0.73667613  0.35806629    -0.03800
C122        C  0.05179540  0.70101854  0.37137491     0.08400
C123        C  0.07800335  0.71202915  0.38941878     0.02200
H124        H  0.02786543  0.74120328  0.34346725     0.09800
H125        H  0.08454664  0.69342997  0.40450067     0.08900
N126        N  0.06350567  0.89296017  0.35538340    -0.34900
N127        N  0.07287478  0.92020734  0.37146424    -0.27100
C128        C  0.05918927  0.95815513  0.36481255    -0.02400
C129        C  0.04011346  0.95447558  0.34353297     0.06300
C130        C  0.04369938  0.91265815  0.33810734     0.04300
H131        H  0.06134144  0.98589653  0.37517017     0.09400
H132        H  0.03209495  0.89728452  0.32292939     0.08300
N133        N  0.82718620  0.39189942  0.42557762    -0.26100
N134        N  0.83172741  0.43222064  0.42985024    -0.34000
C135        C  0.82500268  0.43838624  0.45207221     0.02200
C136        C  0.81625748  0.40005829  0.46232830     0.08300
C137        C  0.81773235  0.37132209  0.44493043    -0.04800
H138        H  0.83025826  0.46793425  0.46053788     0.08900
H139        H  0.81496831  0.33764492  0.44641774     0.10100
Cu140      Cu  0.85716696  0.47519939  0.40691525     0.44200
Cu141      Cu  0.84270051  0.36536240  0.39507684     0.42000
Cu142      Cu  0.90712405  0.43006786  0.35810244     0.43900
N143        N  0.89724646  0.50833663  0.38534404    -0.33500
N144        N  0.91695450  0.49118592  0.36812902    -0.27700
C145        C  0.94505305  0.51887358  0.35957287    -0.03800
C146        C  0.94273094  0.55538501  0.37189802     0.08400
C147        C  0.91195448  0.54764965  0.38802673     0.02200
H148        H  0.96631220  0.51245362  0.34578178     0.09800
H149        H  0.90290119  0.56810440  0.40164058     0.08900
N150        N  0.89265650  0.36799203  0.35199071    -0.34900
N151        N  0.86905116  0.34442131  0.36549275    -0.27100
C152        C  0.86778225  0.30519704  0.35755384    -0.02400
C153        C  0.89173221  0.30396353  0.33801963     0.06300
C154        C  0.90686843  0.34447124  0.33497836     0.04300
H155        H  0.85214904  0.27925477  0.36605111     0.09400
H156        H  0.92718883  0.35607200  0.32160198     0.08300
C157        C  0.93159439  0.15572732  0.28550300     0.87700
C158        C  0.96746351  0.15855883  0.26791332    -0.52600
C159        C  0.97676092  0.12125096  0.25814181     0.10600
C160        C  0.94859828  0.08462421  0.26614241     0.21500
C161        C  0.89446930  0.13716127  0.27159439    -0.53300
C162        C  0.90322083  0.09998203  0.26158895     0.10700
C163        C  0.94502571  0.12111647  0.30211997    -0.52800
C164        C  0.95465823  0.08424076  0.29212239     0.11300
H165        H  0.98288737  0.18728031  0.26241552     0.15800
H166        H  0.95600384  0.05440350  0.25800351     0.01500
H167        H  0.86475841  0.15325184  0.26863625     0.16100
H168        H  0.94884902  0.12615520  0.32028018     0.15900
N169        N  0.71873122  0.99286640  0.09583059    -0.26100
N170        N  0.68200116  0.97406497  0.09154323    -0.34000
C171        C  0.67591729  0.97242614  0.06889920     0.02200
C172        C  0.71012356  0.99163520  0.05847103     0.08300
C173        C  0.73662138  0.00430054  0.07604913    -0.04800
H174        H  0.64705315  0.96147114  0.06069856     0.08900
H175        H  0.76571348  0.02231616  0.07461803     0.10100
Cu176      Cu  0.63715863  0.96115484  0.11625718     0.44200
Cu177      Cu  0.74062582  0.00655092  0.12828501     0.42000
Cu178      Cu  0.66243739  0.99842076  0.17262041     0.43900
N179        N  0.59245749  0.96778468  0.14156767    -0.33500
N180        N  0.60137710  0.98280694  0.16193836    -0.27700
C181        C  0.56499226  0.98851412  0.17315188    -0.03800
C182        C  0.53138210  0.97641022  0.15918971     0.08400
C183        C  0.55021988  0.96339328  0.13931383     0.02200
H184        H  0.56325869  0.00158242  0.18999331     0.09800
H185        H  0.53431532  0.95414341  0.12373642     0.08900
N186        N  0.72567297  0.01386578  0.17855004    -0.34900
N187        N  0.75401057  0.01770944  0.16226906    -0.27100
C188        C  0.79121096  0.03019734  0.17145711    -0.02400
C189        C  0.78614310  0.03400560  0.19467320     0.06300
C190        C  0.74424273  0.02333006  0.19858132     0.04300
H191        H  0.81973575  0.03632531  0.16190928     0.09400
H192        H  0.72803996  0.02387773  0.21467499     0.08300
N193        N  0.18450427  0.10279898  0.09547524    -0.26100
N194        N  0.22192771  0.08757840  0.09048667    -0.34000
C195        C  0.23042738  0.09642606  0.06864789     0.02200
C196        C  0.19637213  0.11773244  0.05951568     0.08300
C197        C  0.16778449  0.12140207  0.07690048    -0.04800
H198        H  0.25963404  0.08891615  0.06024017     0.08900
H199        H  0.13803209  0.13788514  0.07638991     0.10100
Cu200      Cu  0.26040853  0.05848118  0.11424306     0.44200
Cu201      Cu  0.16127283  0.10111665  0.12795086     0.42000
Cu202      Cu  0.23513174  0.06864355  0.17369314     0.43900
N203        N  0.29823090  0.03643911  0.14045739    -0.33500
N204        N  0.29094990  0.04206700  0.16229574    -0.27700
C205        C  0.32459258  0.02813912  0.17443490    -0.03800
C206        C  0.35379772  0.01238646  0.15938621     0.08400
C207        C  0.33593016  0.01822715  0.13809006     0.02200
H208        H  0.32784990  0.02997722  0.19272827     0.09800
H209        H  0.35043241  0.01197292  0.12191560     0.08900
N210        N  0.17357889  0.08948172  0.17863224    -0.34900
N211        N  0.14702533  0.09977728  0.16196775    -0.27100
C212        C  0.10915220  0.10867993  0.17068853    -0.02400
C213        C  0.11183740  0.10398573  0.19398249     0.06300
C214        C  0.15312707  0.09199455  0.19850508     0.04300
H215        H  0.08165294  0.11773009  0.16072616     0.09400
H216        H  0.16682281  0.08413459  0.21492400     0.08300
C217        C  0.46990096  0.01577185  0.17533225     0.24800
C218        C  0.48524381  0.98167190  0.16291359    -0.23300
C219        C  0.45583124  0.95435550  0.15242801     0.19700
C220        C  0.41251874  0.96290304  0.15268395     0.24700
C221        C  0.39761691  0.99849850  0.16371792    -0.23300
C222        C  0.42637398  0.02389396  0.17584476     0.19600
F223        F  0.41277470  0.05860861  0.18655825    -0.13200
F224        F  0.49699545  0.04323628  0.18550302    -0.15600
F225        F  0.38508467  0.93700224  0.14155163    -0.15600
F226        F  0.46901492  0.91972865  0.14148964    -0.13200
C227        C  0.82259088  0.02928414  0.23264980     0.24800
C228        C  0.81753189  0.04958305  0.21146813    -0.23300
C229        C  0.84165109  0.08581286  0.20673722     0.19700
C230        C  0.86963688  0.10196368  0.22310798     0.24700
C231        C  0.87464410  0.08165922  0.24423898    -0.23300
C232        C  0.85120795  0.04511713  0.24888212     0.19600
F233        F  0.85505525  0.02556182  0.26936252    -0.13200
F234        F  0.80014938  0.99389180  0.23750875    -0.15600
F235        F  0.89166284  0.13772288  0.21844117    -0.15600
F236        F  0.83683278  0.10657571  0.18663421    -0.13200
C237        C  0.05165636  0.13379447  0.24636663     0.24800
C238        C  0.01123395  0.11684833  0.24160474    -0.23300
C239        C  0.00411040  0.09560954  0.22110432     0.19700
C240        C  0.03675428  0.09185405  0.20546068     0.24700
C241        C  0.07724671  0.10854069  0.21031006    -0.23300
C242        C  0.08444912  0.12950542  0.23087376     0.19600
F243        F  0.12297969  0.14672879  0.23572080    -0.13200
F244        F  0.05966448  0.15372349  0.26627104    -0.15600
F245        F  0.02902658  0.07098575  0.18581885    -0.15600
F246        F  0.96539424  0.07913388  0.21598713    -0.13200
C247        C  0.94140628  0.26349399  0.31408396     0.24800
C248        C  0.90174765  0.26676812  0.32442904    -0.23300
C249        C  0.87273797  0.23328671  0.32261296     0.19700
C250        C  0.88268197  0.19789682  0.31013207     0.24700
C251        C  0.92127606  0.19559878  0.29830880    -0.23300
C252        C  0.95145550  0.22813389  0.30161843     0.19600
F253        F  0.99203294  0.22490178  0.29464322    -0.13200
F254        F  0.97181967  0.29333671  0.31719650    -0.15600
F255        F  0.85486309  0.16517127  0.31032834    -0.15600
F256        F  0.83448711  0.23461143  0.33285176    -0.13200
C257        C  0.96230236  0.00900079  0.30372434     0.24800
C258        C  0.97667039  0.05058620  0.30484419    -0.23300
C259        C  0.01250132  0.06030861  0.31832169     0.19700
C260        C  0.03307649  0.02911458  0.33085618     0.24700
C261        C  0.01837016  0.98745539  0.33009574    -0.23300
C262        C  0.98271975  0.97769742  0.31637470     0.19600
F263        F  0.96652019  0.93819456  0.31581208    -0.13200
F264        F  0.92770280  0.99884544  0.29095974    -0.15600
F265        F  0.06810493  0.03962375  0.34323587    -0.15600
F266        F  0.02832682  0.09999454  0.31890190    -0.13200
C267        C  0.97997281  0.66823287  0.37240370     0.24800
C268        C  0.02394942  0.66390041  0.37024295    -0.23300
C269        C  0.04107417  0.62396671  0.36770861     0.19700
C270        C  0.01450677  0.58860703  0.36741279     0.24700
C271        C  0.97052408  0.59275719  0.37026195    -0.23300
C272        C  0.95348848  0.63290026  0.37262645     0.19600
F273        F  0.91112937  0.63793668  0.37499293    -0.13200
F274        F  0.96283908  0.70663674  0.37505946    -0.15600
F275        F  0.03201072  0.55025802  0.36531230    -0.15600
F276        F  0.08351432  0.61929294  0.36551732    -0.13200
C277        C  0.80186323  0.41664737  0.52512756     0.24800
C278        C  0.82676374  0.38455074  0.53465586    -0.23300
C279        C  0.84320490  0.35396614  0.52025089     0.19700
C280        C  0.83772115  0.35748238  0.49664725     0.24700
C281        C  0.81565516  0.39160341  0.48709329    -0.23300
C282        C  0.79652362  0.42021965  0.50160003     0.19600
F283        F  0.77342566  0.45236508  0.49294796    -0.13200
F284        F  0.78350361  0.44535675  0.53859698    -0.15600
F285        F  0.85701422  0.32938193  0.48318558    -0.15600
F286        F  0.86746537  0.32254517  0.52873688    -0.13200
C287        C  0.12593009  0.90057883  0.50494143     0.24800
C288        C  0.15109100  0.87272757  0.49273716    -0.23300
C289        C  0.18121367  0.84857702  0.50459744     0.19700
C290        C  0.18505087  0.85106158  0.52824591     0.24700
C291        C  0.15861863  0.87750746  0.54057981    -0.23300
C292        C  0.12959899  0.90290892  0.52862448     0.19600
F293        F  0.10250785  0.92781537  0.53986256    -0.13200
F294        F  0.09560938  0.92347837  0.49420843    -0.15600
F295        F  0.21432840  0.82707789  0.53913326    -0.15600
F296        F  0.20689087  0.82229456  0.49330826    -0.13200
C297        C  0.04339576  0.58522230  0.64963004     0.24800
C298        C  0.99919687  0.58062500  0.64738113    -0.23300
C299        C  0.97387963  0.61655589  0.64688561     0.19700
C300        C  0.99234386  0.65633894  0.64866036     0.24700
C301        C  0.03655788  0.66101107  0.65062881    -0.23300
C302        C  0.06195078  0.62514059  0.65103019     0.19600
F303        F  0.10473245  0.62874037  0.65296378    -0.13200
F304        F  0.06875699  0.55120227  0.64960567    -0.15600
F305        F  0.96700122  0.69035696  0.64754638    -0.15600
F306        F  0.93108524  0.61319489  0.64490332    -0.13200
C307        C  0.02649176  0.04386391  0.72802592     0.24800
C308        C  0.98197194  0.04670901  0.72808651    -0.23300
C309        C  0.95797945  0.02228818  0.71270552     0.19700
C310        C  0.97787396  0.99408955  0.69850042     0.24700
C311        C  0.02209332  0.99077296  0.69879768    -0.23300
C312        C  0.04640586  0.01643746  0.71323679     0.19600
F313        F  0.08925768  0.01331012  0.71386467    -0.13200
F314        F  0.05069219  0.06583145  0.74306587    -0.15600
F315        F  0.95392177  0.96999043  0.68432581    -0.15600
F316        F  0.91522504  0.02587483  0.71122101    -0.13200
C317        C  0.94104794  0.22304599  0.73747420     0.24800
C318        C  0.94039903  0.18176316  0.72962472    -0.23300
C319        C  0.94100422  0.17412774  0.70624960     0.19700
C320        C  0.94112028  0.20748121  0.69072660     0.24700
C321        C  0.94107090  0.24911666  0.69840467    -0.23300
C322        C  0.94168543  0.25658806  0.72198879     0.19600
F323        F  0.94121372  0.29619746  0.73009443    -0.13200
F324        F  0.94088522  0.23077839  0.76013529    -0.15600
F325        F  0.94182490  0.19894662  0.66817785    -0.15600
F326        F  0.94055980  0.13425961  0.69846813    -0.13200
C327        C  0.16935426  0.13413109  0.99762621     0.24800
C328        C  0.19525456  0.16899369  0.99222986    -0.23300
C329        C  0.21885138  0.18854309  0.00969736     0.19700
C330        C  0.21833104  0.17228490  0.03178357     0.24700
C331        C  0.19376145  0.13674141  0.03683701    -0.23300
C332        C  0.16856544  0.11825915  0.01985977     0.19600
F333        F  0.14474227  0.08369753  0.02462662    -0.13200
F334        F  0.14667248  0.11389198  0.98127308    -0.15600
F335        F  0.24212466  0.19100757  0.04825350    -0.15600
F336        F  0.24249901  0.22343012  0.00544020    -0.13200
C337        C  0.03286994  0.10623368  0.80841986     0.24800
C338        C  0.01935060  0.12995522  0.78948413    -0.23300
C339        C  0.04174037  0.16673767  0.78356483     0.19700
C340        C  0.07602557  0.18041149  0.79696524     0.24700
C341        C  0.08788253  0.15776595  0.81654677    -0.23300
C342        C  0.06662448  0.12019365  0.82191608     0.19600
F343        F  0.07858456  0.09694523  0.84030393    -0.13200
F344        F  0.01326301  0.06953546  0.81393965    -0.15600
F345        F  0.09591993  0.21703266  0.79162300    -0.15600
F346        F  0.02893690  0.19080881  0.76568357    -0.13200
C347        C  0.70566525  0.98485652  0.99437011     0.24800
C348        C  0.71004703  0.02718779  0.98796381    -0.23300
C349        C  0.71689165  0.05742045  0.00485649     0.19700
C350        C  0.71880976  0.04559021  0.02780158     0.24700
C351        C  0.71283689  0.00347256  0.03423346    -0.23300
C352        C  0.70654808  0.97318206  0.01736149     0.19600
F353        F  0.70106990  0.93227900  0.02319091    -0.13200
F354        F  0.69838748  0.95504673  0.97846527    -0.15600
F355        F  0.72445305  0.07557293  0.04378630    -0.15600
F356        F  0.72162402  0.09846941  0.99913654    -0.13200
C357        C  0.83137737  0.02613730  0.80709386     0.24800
C358        C  0.79777795  0.05324438  0.81104338    -0.23300
C359        C  0.80051697  0.09476117  0.80311842     0.19700
C360        C  0.83558660  0.10868045  0.79087980     0.24700
C361        C  0.86810115  0.08076438  0.78512487    -0.23300
C362        C  0.86638640  0.03979753  0.79457084     0.19600
F363        F  0.89931797  0.01320921  0.79249351    -0.13200
F364        F  0.83051476  0.98645458  0.81557081    -0.15600
F365        F  0.83884353  0.15035255  0.78663674    -0.15600
F366        F  0.77060196  0.12300651  0.80862338    -0.13200
C367        C  0.47272329  0.15786215  0.85228158     0.24800
C368        C  0.50405531  0.17651316  0.86622843    -0.23300
C369        C  0.49406041  0.21264244  0.87842161     0.19700
C370        C  0.45297165  0.22834511  0.87774316     0.24700
C371        C  0.42105222  0.20823088  0.86489167    -0.24900
C372        C  0.43158475  0.17358657  0.85162314     0.19600
F373        F  0.40140315  0.15266494  0.83949399    -0.13200
F374        F  0.48078747  0.12242593  0.84064454    -0.15600
F375        F  0.44407306  0.26265843  0.89017958    -0.15600
F376        F  0.52389557  0.23245055  0.89133597    -0.13200
loop_ 
_geom_bond_atom_site_label_1 
_geom_bond_atom_site_label_2 
_geom_bond_distance 
_geom_bond_site_symmetry_2 
_ccdc_geom_bond_type 
N1            N2   1.322       .  A
N1            C5   1.345       .  A
N1           Cu9   2.074       .  S
N2            C3   1.343       .  A
N2           Cu8   2.069       .  S
C3            C4   1.382       .  A
C3            H6   1.082       .  S
C4            C5   1.385       .  A
C4          C348   1.476       .  S
C5            H7   1.082   1_545  S
Cu8          N11   2.069       .  S
Cu9          N19   2.074       .  S
Cu10         N12   2.062       .  S
Cu10         N18   2.061       .  S
N11          N12   1.320       .  A
N11          C15   1.343       .  A
N12          C13   1.344       .  A
C13          C14   1.385       .  A
C13          H16   1.081       .  S
C14          C15   1.386       .  A
C14         C368   1.479       .  S
C15          H17   1.082       .  S
N18          N19   1.322       .  A
N18          C22   1.341       .  A
N19          C20   1.345       .  A
C20          C21   1.384       .  A
C20          H23   1.082       .  S
C21          C22   1.382       .  A
C21         C358   1.475       .  S
C22          H24   1.082       .  S
N25          N26   1.318       .  A
N25          C29   1.344       .  A
N25         Cu33   2.059       .  S
N26          C27   1.340       .  A
N26         Cu32   2.056       .  S
C27          C28   1.385       .  A
C27          H30   1.082       .  S
C28          C29   1.387       .  A
C28         C328   1.479       .  S
C29          H31   1.081       .  S
Cu32         N35   2.056       .  S
Cu33         N43   2.060       .  S
Cu34         N36   2.077       .  S
Cu34         N42   2.078       .  S
N35          N36   1.321       .  A
N35          C39   1.339       .  A
N36          C37   1.347       .  A
C37          C38   1.388       .  A
C37          H40   1.082       .  S
C38          C39   1.381       .  A
C38         C371   1.477       .  S
C39          H41   1.082       .  S
N42          N43   1.324       .  A
N42          C46   1.347       .  A
N43          C44   1.339       .  A
C44          C45   1.378       .  A
C44          H47   1.082       .  S
C45          C46   1.383       .  A
C45         C341   1.469       .  S
C46          H48   1.082       .  S
C49          C50   1.546       .  S
C49          C55   1.530       .  S
C49          C53   1.539       .  S
C49         C361   1.531       .  S
C50          H57   1.083       .  S
C50          C51   1.362       .  D
C51          C52   1.530       .  S
C51         C318   1.470       .  S
C52          C56   1.536       .  S
C52          C54   1.538       .  S
C52          H58   1.110   1_655  S
C53          H59   1.085       .  S
C53          C54   1.368       .  D
C54         C308   1.485       .  S
C55          H60   1.086       .  S
C55          C56   1.365       .  D
C56         C338   1.479   1_655  S
N61          N62   1.322       .  A
N61          C65   1.346       .  A
N61         Cu69   2.078       .  S
N62          C63   1.341       .  A
N62         Cu68   2.064       .  S
C63          C64   1.383       .  A
C63          H66   1.082       .  S
C64          C65   1.388       .  A
C64         C291   1.482       .  S
C65          H67   1.081       .  S
Cu68         N71   2.065       .  S
Cu69         N79   2.077       .  S
Cu70         N72   2.068       .  S
Cu70         N78   2.068       .  S
N71          N72   1.320       .  A
N71          C75   1.344       .  A
N72          C73   1.344       .  A
C73          C74   1.385       .  A
C73          H76   1.082       .  S
C74          C75   1.384       .  A
C74         C301   1.477       .  S
C75          H77   1.082       .  S
N78          N79   1.324       .  A
N78          C82   1.342       .  A
N79          C80   1.347       .  A
C80          C81   1.382       .  A
C80          H83   1.082       .  S
C81          C82   1.379       .  A
C81         C311   1.469       .  S
C82          H84   1.082       .  S
N85          N86   1.320       .  A
N85          C89   1.348       .  A
N85         Cu93   2.074       .  S
N86          C87   1.339       .  A
N86         Cu92   2.059       .  S
C87          C88   1.383       .  A
C87          H90   1.082       .  S
C88          C89   1.389       .  A
C88         C278   1.481       .  S
C89          H91   1.082       .  S
Cu92         N95   2.060       .  S
Cu93        N103   2.075       .  S
Cu94         N96   2.079       .  S
Cu94        N102   2.080       .  S
N95          N96   1.321       .  A
N95          C99   1.342       .  A
N96          C97   1.347       .  A
C97          C98   1.387       .  A
C97         H100   1.082   1_655  S
C98          C99   1.382       .  A
C98         C298   1.478       .  S
C99         H101   1.082       .  S
N102        N103   1.324       .  A
N102        C106   1.346       .  A
N103        C104   1.343       .  A
C104        C105   1.384       .  A
C104        H107   1.082       .  S
C105        C106   1.386       .  A
C105        C321   1.481       .  S
C106        H108   1.082       .  S
N109        N110   1.323       .  A
N109        C113   1.345       .  A
N109       Cu117   2.075       .  S
N110        C111   1.344       .  A
N110       Cu116   2.075       .  S
C111        C112   1.385       .  A
C111        H114   1.082       .  S
C112        C113   1.385       .  A
C112        C288   1.481       .  S
C113        H115   1.082       .  S
Cu116       N119   2.075       .  S
Cu117       N127   2.075       .  S
Cu118       N120   2.059       .  S
Cu118       N126   2.059       .  S
N119        N120   1.321       .  A
N119        C123   1.346       .  A
N120        C121   1.343       .  A
C121        C122   1.380       .  A
C121        H124   1.082       .  S
C122        C123   1.384       .  A
C122        C268   1.470       .  S
C123        H125   1.082       .  S
N126        N127   1.321       .  A
N126        C130   1.342       .  A
N127        C128   1.345       .  A
C128        C129   1.388       .  A
C128        H131   1.082       .  S
C129        C130   1.383       .  A
C129        C261   1.481       .  S
C130        H132   1.081       .  S
N133        N134   1.321       .  A
N133        C137   1.344       .  A
N133       Cu141   2.059       .  S
N134        C135   1.344       .  A
N134       Cu140   2.077       .  S
C135        C136   1.386       .  A
C135        H138   1.082       .  S
C136        C137   1.383       .  A
C136        C281   1.479       .  S
C137        H139   1.081       .  S
Cu140       N143   2.077       .  S
Cu141       N151   2.059       .  S
Cu142       N144   2.065       .  S
Cu142       N150   2.065       .  S
N143        N144   1.322       .  A
N143        C147   1.344       .  A
N144        C145   1.344       .  A
C145        C146   1.383       .  A
C145        H148   1.082       .  S
C146        C147   1.385       .  A
C146        C271   1.477       .  S
C147        H149   1.082       .  S
N150        N151   1.320       .  A
N150        C154   1.342       .  A
N151        C152   1.342       .  A
C152        C153   1.384       .  A
C152        H155   1.081       .  S
C153        C154   1.385       .  A
C153        C248   1.478       .  S
C154        H156   1.081       .  S
C157        C158   1.544       .  S
C157        C163   1.529       .  S
C157        C161   1.538       .  S
C157        C251   1.527       .  S
C158        H165   1.082       .  S
C158        C159   1.365       .  D
C159        C160   1.535       .  S
C159        C238   1.477   1_655  S
C160        C164   1.538       .  S
C160        C162   1.539       .  S
C160        H166   1.111       .  S
C161        H167   1.086       .  S
C161        C162   1.364       .  D
C162        C231   1.475       .  S
C163        H168   1.087       .  S
C163        C164   1.361       .  D
C164        C258   1.479       .  S
N169        N170   1.323       .  A
N169        C173   1.345   1_565  A
N169       Cu177   2.071   1_565  S
N170        C171   1.345       .  A
N170       Cu176   2.077       .  S
C171        C172   1.383       .  A
C171        H174   1.082       .  S
C172        C173   1.383   1_565  A
C172        C351   1.475   1_565  S
C173        H175   1.082       .  S
Cu176       N179   2.078       .  S
Cu177       N187   2.072       .  S
Cu178       N180   2.077       .  S
Cu178       N186   2.077   1_565  S
N179        N180   1.321       .  A
N179        C183   1.344       .  A
N180        C181   1.347       .  A
C181        C182   1.388       .  A
C181        H184   1.081   1_565  S
C182        C183   1.388       .  A
C182        C218   1.487       .  S
C183        H185   1.082       .  S
N186        N187   1.322       .  A
N186        C190   1.345       .  A
N187        C188   1.345       .  A
C188        C189   1.384       .  A
C188        H191   1.082       .  S
C189        C190   1.384       .  A
C189        C228   1.477       .  S
C190        H192   1.082       .  S
N193        N194   1.320       .  A
N193        C197   1.344       .  A
N193       Cu201   2.054       .  S
N194        C195   1.342       .  A
N194       Cu200   2.062       .  S
C195        C196   1.380       .  A
C195        H198   1.082       .  S
C196        C197   1.379       .  A
C196        C331   1.462       .  S
C197        H199   1.082       .  S
Cu200       N203   2.062       .  S
Cu201       N211   2.056       .  S
Cu202       N204   2.086       .  S
Cu202       N210   2.086       .  S
N203        N204   1.322       .  A
N203        C207   1.340       .  A
N204        C205   1.350       .  A
C205        C206   1.388       .  A
C205        H208   1.082       .  S
C206        C207   1.379       .  A
C206        C221   1.476   1_545  S
C207        H209   1.082       .  S
N210        N211   1.324       .  A
N210        C214   1.346       .  A
N211        C212   1.341       .  A
C212        C213   1.378       .  A
C212        H215   1.082       .  S
C213        C214   1.385       .  A
C213        C241   1.472       .  S
C214        H216   1.082       .  S
C217        C218   1.411   1_545  A
C217        C222   1.402       .  A
C217        F224   1.357       .  S
C218        C219   1.408       .  A
C219        C220   1.398       .  A
C219        F226   1.358       .  S
C220        C221   1.404       .  A
C220        F225   1.358       .  S
C221        C222   1.404   1_565  A
C222        F223   1.358       .  S
C227        C228   1.407       .  A
C227        C232   1.401       .  A
C227        F234   1.358   1_545  S
C228        C229   1.406       .  A
C229        C230   1.398       .  A
C229        F236   1.358       .  S
C230        C231   1.404       .  A
C230        F235   1.358       .  S
C231        C232   1.402       .  A
C232        F233   1.356       .  S
C237        C238   1.407       .  A
C237        C242   1.396       .  A
C237        F244   1.358       .  S
C238        C239   1.404       .  A
C239        C240   1.397       .  A
C239        F246   1.357   1_455  S
C240        C241   1.407       .  A
C240        F245   1.358       .  S
C241        C242   1.403       .  A
C242        F243   1.358       .  S
C247        C248   1.404       .  A
C247        C252   1.395       .  A
C247        F254   1.358       .  S
C248        C249   1.404       .  A
C249        C250   1.395       .  A
C249        F256   1.357       .  S
C250        C251   1.413       .  A
C250        F255   1.358       .  S
C251        C252   1.415       .  A
C252        F253   1.355       .  S
C257        C258   1.401       .  A
C257        C262   1.399   1_545  A
C257        F264   1.356   1_545  S
C258        C259   1.407   1_655  A
C259        C260   1.396       .  A
C259        F266   1.358       .  S
C260        C261   1.406   1_545  A
C260        F265   1.357       .  S
C261        C262   1.411   1_455  A
C262        F263   1.357       .  S
C267        C268   1.404   1_655  A
C267        C272   1.397       .  A
C267        F274   1.358       .  S
C268        C269   1.402       .  A
C269        C270   1.400       .  A
C269        F276   1.358       .  S
C270        C271   1.409   1_455  A
C270        F275   1.357       .  S
C271        C272   1.405       .  A
C272        F273   1.358       .  S
C277        C278   1.407       .  A
C277        C282   1.396       .  A
C277        F284   1.358       .  S
C278        C279   1.408       .  A
C279        C280   1.401       .  A
C279        F286   1.357       .  S
C280        C281   1.409       .  A
C280        F285   1.357       .  S
C281        C282   1.404       .  A
C282        F283   1.358       .  S
C287        C288   1.408       .  A
C287        C292   1.399       .  A
C287        F294   1.357       .  S
C288        C289   1.406       .  A
C289        C290   1.398       .  A
C289        F296   1.358       .  S
C290        C291   1.407       .  A
C290        F295   1.358       .  S
C291        C292   1.408       .  A
C292        F293   1.357       .  S
C297        C298   1.406   1_455  A
C297        C302   1.400       .  A
C297        F304   1.358       .  S
C298        C299   1.406       .  A
C299        C300   1.397       .  A
C299        F306   1.358       .  S
C300        C301   1.406   1_655  A
C300        F305   1.358       .  S
C301        C302   1.406       .  A
C302        F303   1.358       .  S
C307        C308   1.410   1_455  A
C307        C312   1.400       .  A
C307        F314   1.357       .  S
C308        C309   1.409       .  A
C309        C310   1.395   1_545  A
C309        F316   1.358       .  S
C310        C311   1.401   1_655  A
C310        F315   1.358       .  S
C311        C312   1.402   1_565  A
C312        F313   1.358       .  S
C317        C318   1.402       .  A
C317        C322   1.400       .  A
C317        F324   1.358       .  S
C318        C319   1.399       .  A
C319        C320   1.396       .  A
C319        F326   1.358       .  S
C320        C321   1.409       .  A
C320        F325   1.357       .  S
C321        C322   1.410       .  A
C322        F323   1.357       .  S
C327        C328   1.410       .  A
C327        C332   1.398   1_556  A
C327        F334   1.357       .  S
C328        C329   1.409   1_556  A
C329        C330   1.394       .  A
C329        F336   1.358       .  S
C330        C331   1.400       .  A
C330        F335   1.358       .  S
C331        C332   1.400       .  A
C332        F333   1.358       .  S
C337        C338   1.406       .  A
C337        C342   1.393       .  A
C337        F344   1.358       .  S
C338        C339   1.408       .  A
C339        C340   1.400       .  A
C339        F346   1.357       .  S
C340        C341   1.403       .  A
C340        F345   1.358       .  S
C341        C342   1.404       .  A
C342        F343   1.358       .  S
C347        C348   1.406   1_565  A
C347        C352   1.399   1_556  A
C347        F354   1.358       .  S
C348        C349   1.406   1_556  A
C349        C350   1.399       .  A
C349        F356   1.358   1_554  S
C350        C351   1.406       .  A
C350        F355   1.358       .  S
C351        C352   1.404   1_545  A
C352        F353   1.358       .  S
C357        C358   1.400       .  A
C357        C362   1.399       .  A
C357        F364   1.358   1_545  S
C358        C359   1.404       .  A
C359        C360   1.394       .  A
C359        F366   1.358       .  S
C360        C361   1.414       .  A
C360        F365   1.355       .  S
C361        C362   1.418       .  A
C362        F363   1.358       .  S
C367        C368   1.408       .  A
C367        C372   1.398       .  A
C367        F374   1.357       .  S
C368        C369   1.406       .  A
C369        C370   1.396       .  A
C369        F376   1.358       .  S
C370        C371   1.406       .  A
C370        F375   1.358       .  S
C371        C372   1.406       .  A
C372        F373   1.357       .  S
