geometry optimzed in LAMMPS
_audit_creation_date              2020-11-30 
_audit_creation_method            'lammps2cif' 
_symmetry_space_group_name_H-M    'P1' 
_symmetry_Int_Tables_number       1 
_symmetry_cell_setting            triclinic 
loop_ 
_symmetry_equiv_pos_as_xyz 
  x,y,z 
_cell_length_a                    22.09918217 
_cell_length_b                    20.304372561396256 
_cell_length_c                    21.992590360246464 
_cell_angle_alpha                 78.35930697001314 
_cell_angle_beta                  74.26202887620457 
_cell_angle_gamma                 79.4988788811744 
loop_ 
_atom_site_label 
_atom_site_type_symbol 
_atom_site_fract_x 
_atom_site_fract_y 
_atom_site_fract_z 
_atom_site_charge 
O1          O  0.12737467  0.94942989  0.97764284    -0.80100
O2          O  0.82653253  0.99125746  0.00632290    -0.64800
O3          O  0.00189249  0.01553181  0.97390009    -1.11400
C4          C  0.94376353  0.02742618  0.19684168     1.06800
O5          O  0.79498998  0.07822010  0.05843940    -0.78000
O6          O  0.88081118  0.14359169  0.08084100    -0.65600
Ni7        Ni  0.06585536  0.95356454  0.92734133     1.34900
C8          C  0.93731059  0.15673187  0.05827992     0.85500
O9          O  0.91886734  0.00882766  0.89981643    -0.78500
O10         O  0.01580606  0.95301958  0.86654185    -0.88800
C11         C  0.78261009  0.03461618  0.03113144     0.85100
O12         O  0.03584355  0.87336038  0.98028272    -0.67000
O13         O  0.88834739  0.04908546  0.18816211    -0.86300
C14         C  0.97941593  0.85919687  0.99643107     0.85900
C15         C  0.96149649  0.98119764  0.85763834     1.07500
H16         H  0.90684988  0.95442354  0.09862171     0.39300
O17         O  0.91194944  0.99981538  0.07568348    -1.09000
O18         O  0.98515284  0.11091068  0.05055424    -0.65600
Ni19       Ni  0.99857910  0.01269175  0.06274576     1.26300
O20         O  0.93090762  0.90421895  0.99689077    -0.65800
O21         O  0.99136790  0.00949210  0.15259943    -0.78100
C22         C  0.13358535  0.98652271  0.01548364     0.85300
O23         O  0.08645305  0.02194585  0.04678006    -0.65300
Ni24       Ni  0.84617565  0.06128944  0.12021346     1.27400
Ni25       Ni  0.91464660  0.00251592  0.98810049     1.26100
H26         H  0.00687720  0.06085382  0.95083777     0.39900
N27         N  0.89012901  0.96807471  0.62366999    -0.35800
N28         N  0.86427561  0.99273718  0.49231797    -0.56400
N29         N  0.98763589  0.03705835  0.43827740    -0.35800
N30         N  0.01238238  0.00899325  0.56768208    -0.56400
C31         C  0.84280007  0.93076463  0.63307366     0.27800
C32         C  0.91255236  0.95318908  0.67711317     0.27800
C33         C  0.95867086  0.05750149  0.38925438     0.27800
C34         C  0.02804027  0.08211695  0.43242299     0.27800
C35         C  0.82022127  0.95255182  0.52655330     0.36400
C36         C  0.86539046  0.99662656  0.43006155     0.36400
C37         C  0.01959992  0.98961958  0.62811655     0.36400
C38         C  0.06576018  0.03371571  0.53182880     0.36400
C39         C  0.83203356  0.89488879  0.69474102    -0.21100
C40         C  0.87495594  0.91028245  0.72318831    -0.21100
C41         C  0.98130589  0.11484248  0.35115692    -0.21100
C42         C  0.02365583  0.13149599  0.37897275    -0.21100
C43         C  0.79086624  0.93395863  0.48544732    -0.22200
C44         C  0.81889726  0.96246646  0.42438630    -0.22100
C45         C  0.07959886  0.99915398  0.63000375    -0.22200
C46         C  0.10892687  0.02645075  0.56904342    -0.22100
C47         C  0.82804659  0.90879637  0.58295056    -0.17500
C48         C  0.97144612  0.96774491  0.68213598    -0.17500
C49         C  0.06814115  0.08011339  0.47408917    -0.17500
C50         C  0.91054060  0.02731227  0.37878557    -0.17500
H51         H  0.80096181  0.85627460  0.71465166     0.15400
H52         H  0.88245176  0.88599080  0.76958872     0.15400
H53         H  0.96629057  0.14382309  0.30949539     0.15400
H54         H  0.04679835  0.17632161  0.36121070     0.15400
H55         H  0.75826713  0.89678173  0.49769219     0.13700
H56         H  0.80978012  0.95392330  0.38087500     0.13700
H57         H  0.09937290  0.99081493  0.67126737     0.13700
H58         H  0.15450363  0.04490392  0.55495974     0.13700
H59         H  0.90815056  0.99819356  0.58084233     0.27000
H60         H  0.98215427  0.99298915  0.47180880     0.27000
N61         N  0.37857457  0.99788045  0.06334494    -0.35800
N62         N  0.51090693  0.00990499  0.06775151    -0.56400
N63         N  0.56158365  0.95160238  0.95332816    -0.35800
N64         N  0.42993161  0.94417355  0.94580613    -0.56400
C65         C  0.37007847  0.00415548  0.12535575     0.27800
C66         C  0.32713925  0.97251758  0.05923591     0.27800
C67         C  0.61639600  0.96526794  0.96198766     0.27800
C68         C  0.57328913  0.94240008  0.89176436     0.27800
C69         C  0.47734385  0.03361435  0.12192973     0.36400
C70         C  0.57317912  0.00897785  0.06517310     0.36400
C71         C  0.36751721  0.94492677  0.94917521     0.36400
C72         C  0.46237425  0.93113165  0.88683269     0.36400
C73         C  0.31249799  0.98343975  0.16068758    -0.21100
C74         C  0.28571371  0.96317886  0.11918944    -0.21100
C75         C  0.66382569  0.96165712  0.90636439    -0.21100
C76         C  0.63668367  0.94841792  0.86198323    -0.21100
C77         C  0.51873819  0.05049777  0.15225419    -0.22200
C78         C  0.57897889  0.03326382  0.11745051    -0.22100
C79         C  0.36062407  0.93086412  0.89251939    -0.22200
C80         C  0.42037154  0.92173068  0.85344108    -0.22100
C81         C  0.41247751  0.02749421  0.15185033    -0.17500
C82         C  0.31670512  0.95686984  0.00303460    -0.17500
C83         C  0.52854398  0.93219609  0.85989854    -0.17500
C84         C  0.62485424  0.98593638  0.01650695    -0.17500
H85         H  0.29225765  0.98178020  0.21155794     0.15400
H86         H  0.24147626  0.94215474  0.13229503     0.15400
H87         H  0.71225337  0.97155726  0.89729705     0.15400
H88         H  0.66120533  0.94594668  0.81260686     0.15400
H89         H  0.50720294  0.06881618  0.19751706     0.13700
H90         H  0.62174232  0.03668281  0.13081714     0.13700
H91         H  0.31724339  0.92832439  0.87979029     0.13700
H92         H  0.43139224  0.91075196  0.80516894     0.13700
H93         H  0.41528333  0.01463783  0.02564781     0.27000
H94         H  0.51925262  0.94641651  0.98756551     0.27000
N95         N  0.96130379  0.58432306  0.00245739    -0.35800
N96         N  0.05898189  0.54920355  0.07010202    -0.56400
N97         N  0.06278400  0.40597917  0.05587298    -0.35800
N98         N  0.95847875  0.43949889  0.99972937    -0.56400
C99         C  0.95352406  0.63789808  0.03318406     0.27800
C100        C  0.90459922  0.58083403  0.99224648     0.27800
C101        C  0.10536348  0.40198419  0.09041382     0.27800
C102        C  0.04594418  0.34323424  0.06419980     0.27800
C103        C  0.05733901  0.61760139  0.05712056     0.36400
C104        C  0.11848123  0.52342267  0.07512198     0.36400
C105        C  0.92940542  0.47144780  0.95338911     0.36400
C106        C  0.97596380  0.37435466  0.99042949     0.36400
C107        C  0.89055030  0.66676527  0.04534817    -0.21100
C108        C  0.85961531  0.63091344  0.01916541    -0.21100
C109        C  0.11659065  0.33595752  0.12108869    -0.21100
C110        C  0.07785474  0.29903297  0.10575753    -0.21100
C111        C  0.11510122  0.63530378  0.05678659    -0.22200
C112        C  0.15386442  0.57558974  0.06811509    -0.22100
C113        C  0.92921554  0.42646021  0.91354561    -0.22200
C114        C  0.95786908  0.36438396  0.93784834    -0.22100
C115        C  0.00389011  0.66322342  0.04515627    -0.17500
C116        C  0.89488880  0.53709662  0.95425198    -0.17500
C117        C  0.00782812  0.32452736  0.02978882    -0.17500
C118        C  0.14230666  0.45343187  0.08373781    -0.17500
H119        H  0.86924004  0.70955136  0.06993816     0.15400
H120        H  0.80979384  0.64098580  0.01957074     0.15400
H121        H  0.15014956  0.31597772  0.15022946     0.15400
H122        H  0.07592233  0.24522282  0.12116037     0.15400
H123        H  0.12906586  0.68545577  0.04717948     0.13700
H124        H  0.20292182  0.57103725  0.07001995     0.13700
H125        H  0.90884111  0.43677655  0.87250633     0.13700
H126        H  0.96554298  0.31776262  0.91848787     0.13700
H127        H  0.00437002  0.55704116  0.98212644     0.27000
H128        H  0.05429099  0.44727603  0.02122456     0.27000
N129        N  0.06698469  0.58459344  0.48434588    -0.35800
N130        N  0.12286014  0.45756228  0.44483541    -0.56400
N131        N  0.99789294  0.43663501  0.42716103    -0.35800
N132        N  0.94115251  0.56076669  0.47292248    -0.56400
C133        C  0.12297065  0.57733400  0.50104767     0.27800
C134        C  0.02582201  0.63010442  0.51792148     0.27800
C135        C  0.02956652  0.37306227  0.42724909     0.27800
C136        C  0.93551081  0.43228883  0.43391132     0.27800
C137        C  0.17645545  0.47535215  0.45206418     0.36400
C138        C  0.13809252  0.39413084  0.43030780     0.36400
C139        C  0.93076303  0.62682985  0.47876801     0.36400
C140        C  0.89381615  0.55034094  0.44933501     0.36400
C141        C  0.11724589  0.61982992  0.54505902    -0.21100
C142        C  0.05589533  0.65233935  0.55624614    -0.21100
C143        C  0.98732509  0.32875709  0.42985758    -0.21100
C144        C  0.92833504  0.36595469  0.43426957    -0.21100
C145        C  0.22579170  0.42250140  0.44177666    -0.22200
C146        C  0.20156696  0.37149582  0.42794627    -0.22100
C147        C  0.87741123  0.65887056  0.45749235    -0.22200
C148        C  0.85387601  0.61019615  0.43900345    -0.22100
C149        C  0.17893780  0.53369754  0.47734572    -0.17500
C150        C  0.96361654  0.65617050  0.51083498    -0.17500
C151        C  0.88462599  0.48626513  0.44092609    -0.17500
C152        C  0.09447264  0.35205325  0.42866198    -0.17500
H153        H  0.15287820  0.62650298  0.56779845     0.15400
H154        H  0.03599645  0.68891656  0.58846755     0.15400
H155        H  0.99741616  0.27452453  0.43019018     0.15400
H156        H  0.88490180  0.34576035  0.43915699     0.15400
H157        H  0.27317042  0.41795954  0.44831621     0.13700
H158        H  0.22713602  0.32188303  0.42031600     0.13700
H159        H  0.85679646  0.71157270  0.45665074     0.13700
H160        H  0.81209724  0.61795657  0.42038567     0.13700
H161        H  0.05888897  0.56554928  0.44720163     0.27000
H162        H  0.01846631  0.48032612  0.42083835     0.27000
O163        O  0.69693456  0.44785342  0.43916189    -0.80100
O164        O  0.40694509  0.50521037  0.42867082    -0.64800
O165        O  0.57828303  0.51933509  0.42360168    -1.11400
C166        C  0.50161227  0.51395276  0.65018108     1.06800
O167        O  0.36002257  0.57004009  0.50314788    -0.78000
O168        O  0.44153875  0.63601759  0.53517326    -0.65600
Ni169      Ni  0.64510529  0.45917866  0.37847528     1.34900
C170        C  0.49772957  0.65126534  0.51583121     0.85500
O171        O  0.50876247  0.52800857  0.33253611    -0.78500
O172        O  0.60489696  0.46752772  0.30855755    -0.88800
C173        C  0.35786953  0.53810964  0.45978982     0.85100
O174        O  0.60999327  0.37725605  0.42073523    -0.67000
O175        O  0.44780151  0.53417003  0.63757506    -0.86300
C176        C  0.55329106  0.36573830  0.42951723     0.85900
C177        C  0.55573499  0.50199425  0.29241149     1.07500
H178        H  0.47653033  0.44984703  0.53355405     0.39300
O179        O  0.48104979  0.49693579  0.51659478    -1.09000
O180        O  0.54719851  0.60735055  0.50795676    -0.65600
Ni181      Ni  0.56594736  0.50982331  0.51476444     1.26300
O182        O  0.50720289  0.41338917  0.42626933    -0.65800
O183        O  0.55214725  0.49997008  0.60735449    -0.78100
C184        C  0.70138295  0.48812915  0.47486567     0.85300
O185        O  0.65244737  0.52124145  0.50661081    -0.65300
Ni186      Ni  0.41026703  0.55031395  0.56588458     1.27400
Ni187      Ni  0.49329754  0.51120464  0.42472424     1.26100
H188        H  0.58604264  0.56508860  0.40411482     0.39900
N189        N  0.47618326  0.50265276  0.05730504    -0.35800
N190        N  0.56860138  0.59407733  0.01355950    -0.56400
N191        N  0.58517286  0.56507316  0.88027559    -0.35800
N192        N  0.48834349  0.48440777  0.92215875    -0.56400
C193        C  0.46793620  0.53400358  0.10845854     0.27800
C194        C  0.41900903  0.48717676  0.05835354     0.27800
C195        C  0.62104918  0.61467106  0.87116986     0.27800
C196        C  0.57851889  0.55884051  0.82220953     0.27800
C197        C  0.56657448  0.58299350  0.07711172     0.36400
C198        C  0.62396591  0.61798864  0.98316906     0.36400
C199        C  0.44930425  0.43941454  0.95658637     0.36400
C200        C  0.50879165  0.46950920  0.86203466     0.36400
C201        C  0.40536986  0.53880369  0.14248056    -0.21100
C202        C  0.37396561  0.51111433  0.10989520    -0.21100
C203        C  0.63897069  0.63982001  0.80643560    -0.21100
C204        C  0.61108448  0.60549944  0.77549875    -0.21100
C205        C  0.61872023  0.60359757  0.08733592    -0.22200
C206        C  0.65531204  0.62528137  0.02785516    -0.22100
C207        C  0.44508196  0.39465751  0.91822703    -0.22200
C208        C  0.48294266  0.41369643  0.85824037    -0.22100
C209        C  0.51657264  0.55638293  0.12544854    -0.17500
C210        C  0.40753511  0.44842518  0.01650619    -0.17500
C211        C  0.54725155  0.50919612  0.81054452    -0.17500
C212        C  0.65195235  0.62297383  0.91642745    -0.17500
H213        H  0.38422146  0.56182104  0.18500584     0.15400
H214        H  0.32342636  0.50931785  0.12324893     0.15400
H215        H  0.67141817  0.67662656  0.78379626     0.15400
H216        H  0.61659749  0.61217317  0.72430092     0.15400
H217        H  0.63004152  0.60180567  0.13256101     0.13700
H218        H  0.70103873  0.64230644  0.01832446     0.13700
H219        H  0.41532891  0.35466816  0.93140062     0.13700
H220        H  0.48937647  0.39023865  0.81650178     0.13700
H221        H  0.51946669  0.48697114  0.02705892     0.27000
H222        H  0.57576178  0.53084624  0.92260214     0.27000
N223        N  0.54975346  0.91441503  0.54420808    -0.35800
N224        N  0.45618608  0.95921422  0.47821044    -0.56400
N225        N  0.49116087  0.09918252  0.44661830    -0.35800
N226        N  0.59631550  0.05008613  0.50673404    -0.56400
C227        C  0.53802270  0.85321807  0.53807189     0.27800
C228        C  0.60546875  0.90533615  0.56019134     0.27800
C229        C  0.46355170  0.09637345  0.39917451     0.27800
C230        C  0.52747722  0.15029744  0.42560996     0.27800
C231        C  0.43907078  0.89717841  0.50406358     0.36400
C232        C  0.40932164  0.99570764  0.45289711     0.36400
C233        C  0.62849770  0.02040009  0.55170969     0.36400
C234        C  0.59834117  0.11765132  0.49923891     0.36400
C235        C  0.58681913  0.80397952  0.55287717    -0.21100
C236        C  0.62939837  0.83715422  0.56675451    -0.21100
C237        C  0.48316188  0.14640356  0.34758517    -0.21100
C238        C  0.52209195  0.18131020  0.36497516    -0.21100
C239        C  0.37952977  0.89416917  0.49640606    -0.22200
C240        C  0.36043024  0.95689468  0.46430959    -0.22100
C241        C  0.65333451  0.06860699  0.57063173    -0.22200
C242        C  0.63461131  0.13026221  0.53707889    -0.22100
C243        C  0.48153968  0.84193242  0.52497949    -0.17500
C244        C  0.62367615  0.95397719  0.58594532    -0.17500
C245        C  0.56748736  0.16780718  0.45877975    -0.17500
C246        C  0.42123165  0.04986357  0.40185707    -0.17500
H247        H  0.59062546  0.74958247  0.55674999     0.14000
H248        H  0.67160363  0.81339494  0.58266376     0.15400
H249        H  0.47175835  0.15689962  0.30155262     0.15400
H250        H  0.54636747  0.22254363  0.33505892     0.15400
H251        H  0.35438340  0.85046909  0.50871407     0.13700
H252        H  0.31865013  0.97009930  0.44532330     0.13700
H253        H  0.67898660  0.06027999  0.60764405     0.13700
H254        H  0.64409600  0.17895558  0.54238292     0.13700
H255        H  0.51797573  0.95893056  0.54777068     0.27000
H256        H  0.48356209  0.06995963  0.49211808     0.27000
C257        C  0.53897364  0.29444827  0.44258406    -0.15600
C258        C  0.58325217  0.23918405  0.44596536    -0.30800
H259        H  0.48998880  0.28717351  0.44895588     0.13400
H260        H  0.63181079  0.24619257  0.44203040     0.14000
C261        C  0.50756596  0.72339885  0.50247048    -0.15600
C262        C  0.46655042  0.77147575  0.53218529    -0.30800
H263        H  0.55248802  0.73634556  0.47112346     0.13400
H264        H  0.42100915  0.75923953  0.56253015     0.14000
C265        C  0.55557105  0.51028274  0.22345828    -0.15600
C266        C  0.51311019  0.55298541  0.19517476    -0.30800
H267        H  0.59387849  0.48053419  0.19370229     0.13400
H268        H  0.47338152  0.58207131  0.22386893     0.14000
C269        C  0.55338330  0.50196493  0.74213007    -0.15600
C270        C  0.50175919  0.50795695  0.71896771    -0.30800
H271        H  0.59995800  0.50055280  0.70912754     0.13400
H272        H  0.45546860  0.51447162  0.75222112     0.14000
C273        C  0.24050287  0.54375443  0.48889252    -0.15600
C274        C  0.29629484  0.53935249  0.44437139    -0.30800
H275        H  0.24039824  0.55267734  0.53594107     0.13400
H276        H  0.29735843  0.52977747  0.39721645     0.14000
C277        C  0.81985264  0.47436603  0.43909838    -0.15600
C278        C  0.76538375  0.49618687  0.48026120    -0.30800
H279        H  0.81735274  0.44546319  0.40353844     0.13400
H280        H  0.76762427  0.52393255  0.51680383     0.14000
C281        C  0.82512827  0.62429560  0.89551561    -0.12600
C282        C  0.84033844  0.55663949  0.92406975     0.09600
C283        C  0.79773649  0.51015429  0.93287551    -0.12600
C284        C  0.73942678  0.53174637  0.91867607    -0.12600
C285        C  0.72053797  0.60101244  0.90064243     0.09600
C286        C  0.76435990  0.64706541  0.88570971    -0.12600
H287        H  0.85775648  0.66082725  0.88731631     0.13600
H288        H  0.80663502  0.45835623  0.95625444     0.13600
H289        H  0.70547859  0.49590626  0.93071720     0.13600
H290        H  0.75000767  0.70074709  0.87198594     0.13600
C291        C  0.24705384  0.40232699  0.10888088    -0.12600
C292        C  0.21152086  0.43521946  0.06484505     0.09600
C293        C  0.24236712  0.45789039  0.00139039    -0.12600
C294        C  0.30749290  0.45670596  0.98427305    -0.12600
C295        C  0.34313359  0.42962076  0.02957343     0.09600
C296        C  0.31319580  0.39751028  0.09049518    -0.12600
H297        H  0.22382378  0.38451406  0.15802280     0.13600
H298        H  0.21528848  0.48235913  0.96665171     0.13600
H299        H  0.32924905  0.48203088  0.93716821     0.13600
H300        H  0.34028932  0.37579834  0.12579375     0.13600
C301        C  0.59695410  0.88229973  0.76358777    -0.12600
C302        C  0.55138355  0.93355631  0.78983114     0.09600
C303        C  0.53101108  0.99077535  0.74944104    -0.12600
C304        C  0.55524387  0.99686746  0.68381764    -0.12600
C305        C  0.60287192  0.94741714  0.65686864     0.09600
C306        C  0.62336179  0.88971538  0.69747886    -0.12600
H307        H  0.61350753  0.83801098  0.79451496     0.13600
H308        H  0.49612735  0.03088203  0.76894745     0.13600
H309        H  0.53613124  0.04046774  0.65396420     0.13600
H310        H  0.65970506  0.85067864  0.67845625     0.13600
C311        C  0.37103989  0.09232627  0.24416390    -0.12600
C312        C  0.39383648  0.03046277  0.22117547     0.09600
C313        C  0.41558899  0.97381041  0.26122166    -0.12600
C314        C  0.42243766  0.98069175  0.32024513    -0.12600
C315        C  0.40413702  0.04349225  0.34237945     0.09600
C316        C  0.37481436  0.09836303  0.30544892    -0.12600
H317        H  0.35471667  0.13670177  0.21321647     0.13600
H318        H  0.43411023  0.92611784  0.24367505     0.13600
H319        H  0.44565238  0.93747929  0.34710886     0.13600
H320        H  0.35907444  0.14677876  0.32207814     0.13600
C321        C  0.83547557  0.78208156  0.59418467    -0.12600
C322        C  0.86314780  0.84173153  0.57061605     0.09600
C323        C  0.92585120  0.83886614  0.53284580    -0.12600
C324        C  0.95907726  0.77817879  0.51512589    -0.12600
C325        C  0.93107570  0.71867504  0.53670968     0.09600
C326        C  0.86970674  0.72047239  0.57783985    -0.12600
H327        H  0.78745371  0.78351334  0.62381755     0.13600
H328        H  0.94848393  0.88427614  0.51542551     0.13600
H329        H  0.00598846  0.77793802  0.48312652     0.13600
H330        H  0.84756498  0.67460696  0.59497189     0.13600
C331        C  0.13835115  0.16852087  0.40902958    -0.12600
C332        C  0.09973815  0.14093701  0.46746936     0.09600
C333        C  0.07885791  0.17945178  0.51747919    -0.12600
C334        C  0.08707570  0.24715196  0.50623835    -0.12600
C335        C  0.11295187  0.27815930  0.44408196     0.09600
C336        C  0.14277124  0.23820644  0.39633227    -0.12600
H337        H  0.15681261  0.13887067  0.37056349     0.13600
H338        H  0.04966975  0.15964904  0.56334192     0.13600
H339        H  0.06487547  0.27753208  0.54368052     0.13600
H340        H  0.16400125  0.26166835  0.34829556     0.13600
C341        C  0.96956012  0.78720523  0.00928454    -0.15600
C342        C  0.00348423  0.73806862  0.04239228    -0.30800
H343        H  0.93691323  0.77487181  0.98575041     0.13400
H344        H  0.03567823  0.75385489  0.06445904     0.14000
C345        C  0.94650913  0.22932921  0.04234641    -0.15600
C346        C  0.00269749  0.25100028  0.03454997    -0.30800
H347        H  0.90428479  0.26650518  0.04295191     0.13400
H348        H  0.04413844  0.21381908  0.03832965     0.14000
C349        C  0.69225889  0.98367632  0.02033309    -0.15600
C350        C  0.71615032  0.03774276  0.02669102    -0.30800
H351        H  0.72396144  0.93664077  0.01367110     0.13400
H352        H  0.68511845  0.08540810  0.03176229     0.14000
C353        C  0.19791739  0.99009518  0.02340364    -0.15600
C354        C  0.25078556  0.94803333  0.00089571    -0.30800
H355        H  0.20204858  0.03064091  0.04694932     0.13400
H356        H  0.24611445  0.90842426  0.97653633     0.14000
C357        C  0.94599974  0.98341360  0.79567845    -0.15600
C358        C  0.98575458  0.95556536  0.74656832    -0.30800
H359        H  0.90083964  0.01178711  0.78922164     0.13400
H360        H  0.03170482  0.92883793  0.75198953     0.14000
C361        C  0.90310592  0.03393432  0.31232182    -0.15600
C362        C  0.95270801  0.02293898  0.26201376    -0.30800
H363        H  0.85523378  0.04474706  0.30540475     0.13400
H364        H  0.00040567  0.00898667  0.26926733     0.14000
loop_ 
_geom_bond_atom_site_label_1 
_geom_bond_atom_site_label_2 
_geom_bond_distance 
_geom_bond_site_symmetry_2 
_ccdc_geom_bond_type 
O1           Ni7   1.953       .  S
O1           C22   1.277   1_556  A
O2          Ni25   1.925   1_564  S
O2           C11   1.269   1_565  A
O3           Ni7   1.928   1_545  S
O3          Ni25   1.926   1_455  S
O3          Ni19   1.925   1_456  S
O3           H26   0.967       .  S
C4           O21   1.278       .  A
C4           O13   1.275       .  A
C4          C362   1.482       .  S
O5          Ni24   1.936       .  S
O5           C11   1.269       .  A
O6          Ni24   1.911       .  S
O6            C8   1.268       .  A
Ni7          O10   1.956       .  S
Ni7          O12   1.912       .  S
C8           O18   1.273       .  A
C8          C345   1.483       .  S
O9          Ni25   1.898       .  S
O9           C15   1.267   1_545  A
O10          C15   1.280   1_455  A
C11         C350   1.487       .  S
O12          C14   1.270   1_455  A
O13         Ni24   1.920       .  S
C14          O20   1.275       .  A
C14         C341   1.476   1_556  S
C15         C357   1.483       .  S
H16          O17   0.967       .  S
O17         Ni25   1.901   1_564  S
O17         Ni19   1.916   1_565  S
O17         Ni24   1.921   1_565  S
O18         Ni19   1.936       .  S
Ni19         O23   1.915   1_655  S
Ni19         O21   1.928       .  S
O20         Ni25   1.942   1_565  S
C22          O23   1.270   1_565  A
C22         C353   1.495       .  S
N27          C32   1.355       .  A
N27          C31   1.349       .  A
N27          H59   1.036       .  S
N28          C35   1.351       .  A
N28          C36   1.349       .  A
N29          C34   1.356   1_655  A
N29          C33   1.357       .  A
N29          H60   1.041   1_545  S
N30          C37   1.352   1_545  A
N30          C38   1.348       .  A
C31          C39   1.384       .  A
C31          C47   1.402       .  A
C32          C48   1.423       .  A
C32          C40   1.388       .  A
C33          C41   1.378       .  A
C33          C50   1.410       .  A
C34          C49   1.428       .  A
C34          C42   1.395       .  A
C35          C47   1.405       .  A
C35          C43   1.388       .  A
C36          C50   1.410   1_565  A
C36          C44   1.384       .  A
C37          C45   1.387       .  A
C37          C48   1.419   1_455  A
C38          C46   1.388       .  A
C38          C49   1.415       .  A
C39          C40   1.378       .  A
C39          H51   1.083       .  S
C40          H52   1.082       .  S
C41          C42   1.369   1_655  A
C41          H53   1.083       .  S
C42          H54   1.077       .  S
C43          C44   1.374       .  A
C43          H55   1.083       .  S
C44          H56   1.082       .  S
C45          C46   1.373   1_565  A
C45          H57   1.081       .  S
C46          H58   1.083       .  S
C47         C322   1.476       .  S
C48         C358   1.497       .  S
C49         C332   1.490       .  S
C50         C361   1.492       .  S
N61          C66   1.361       .  A
N61          C65   1.354   1_565  A
N61          H93   1.041   1_565  S
N62          C69   1.350       .  A
N62          C70   1.359       .  A
N63          C68   1.353       .  A
N63          C67   1.360       .  A
N63          H94   1.037       .  S
N64          C71   1.359       .  A
N64          C72   1.353       .  A
C65          C73   1.388   1_545  A
C65          C81   1.418       .  A
C66          C82   1.422       .  A
C66          C74   1.386       .  A
C67          C75   1.383       .  A
C67          C84   1.415   1_556  A
C68          C83   1.422       .  A
C68          C76   1.392       .  A
C69          C81   1.423       .  A
C69          C77   1.392       .  A
C70          C84   1.419   1_545  A
C70          C78   1.383       .  A
C71          C79   1.386       .  A
C71          C82   1.421   1_556  A
C72          C80   1.389       .  A
C72          C83   1.423       .  A
C73          C74   1.373       .  A
C73          H85   1.082       .  S
C74          H86   1.082       .  S
C75          C76   1.366       .  A
C75          H87   1.083       .  S
C76          H88   1.081       .  S
C77          C78   1.366       .  A
C77          H89   1.082       .  S
C78          H90   1.080       .  S
C79          C80   1.370       .  A
C79          H91   1.081       .  S
C80          H92   1.082       .  S
C81         C312   1.478       .  S
C82         C354   1.514       .  S
C83         C302   1.482       .  S
C84         C349   1.507       .  S
N95         C100   1.348   1_554  A
N95          C99   1.355       .  A
N95         H127   1.044   1_654  S
N96         C103   1.356       .  A
N96         C104   1.349       .  A
N97         C102   1.355       .  A
N97         C101   1.343       .  A
N97         H128   1.040       .  S
N98         C105   1.345       .  A
N98         C106   1.349       .  A
C99         C107   1.384       .  A
C99         C115   1.412   1_655  A
C100        C116   1.414       .  A
C100        C108   1.388   1_556  A
C101        C109   1.385       .  A
C101        C118   1.401       .  A
C102        C117   1.416       .  A
C102        C110   1.388       .  A
C103        C115   1.412       .  A
C103        C111   1.386       .  A
C104        C118   1.416       .  A
C104        C112   1.388       .  A
C105        C113   1.389       .  A
C105        C116   1.411       .  A
C106        C114   1.383       .  A
C106        C117   1.409   1_656  A
C107        C108   1.376       .  A
C107        H119   1.082       .  S
C108        H120   1.080       .  S
C109        C110   1.379       .  A
C109        H121   1.081       .  S
C110        H122   1.082       .  S
C111        C112   1.372       .  A
C111        H123   1.081       .  S
C112        H124   1.083       .  S
C113        C114   1.377       .  A
C113        H125   1.082       .  S
C114        H126   1.082       .  S
C115        C342   1.507       .  S
C116        C282   1.485       .  S
C117        C346   1.498       .  S
C118        C292   1.470       .  S
N129        C134   1.353       .  A
N129        C133   1.359       .  A
N129        H161   1.040       .  S
N130        C137   1.356       .  A
N130        C138   1.351       .  A
N131        C136   1.363       .  A
N131        C135   1.351   1_655  A
N131        H162   1.037   1_655  S
N132        C139   1.345       .  A
N132        C140   1.352       .  A
C133        C141   1.389       .  A
C133        C149   1.423       .  A
C134        C150   1.418   1_455  A
C134        C142   1.387       .  A
C135        C143   1.393   1_455  A
C135        C152   1.427       .  A
C136        C151   1.419       .  A
C136        C144   1.383       .  A
C137        C149   1.422       .  A
C137        C145   1.389       .  A
C138        C152   1.411       .  A
C138        C146   1.384       .  A
C139        C147   1.389       .  A
C139        C150   1.409       .  A
C140        C148   1.383       .  A
C140        C151   1.408       .  A
C141        C142   1.376       .  A
C141        H153   1.081       .  S
C142        H154   1.082       .  S
C143        C144   1.372       .  A
C143        H155   1.082       .  S
C144        H156   1.082       .  S
C145        C146   1.367       .  A
C145        H157   1.080       .  S
C146        H158   1.082       .  S
C147        C148   1.370       .  A
C147        H159   1.083       .  S
C148        H160   1.082       .  S
C149        C273   1.506       .  S
C150        C325   1.479       .  S
C151        C277   1.507       .  S
C152        C335   1.476       .  S
O163       Ni169   1.938       .  S
O163        C184   1.275       .  A
O164       Ni187   1.912       .  S
O164        C173   1.268       .  A
O165       Ni169   1.922       .  S
O165       Ni187   1.908       .  S
O165       Ni181   1.923       .  S
O165        H188   0.966       .  S
C166        O183   1.279       .  A
C166        O175   1.271       .  A
C166        C270   1.494       .  S
O167       Ni186   1.935       .  S
O167        C173   1.272       .  A
O168       Ni186   1.916       .  S
O168        C170   1.272       .  A
Ni169       O172   1.940       .  S
Ni169       O174   1.920       .  S
C170        O180   1.275       .  A
C170        C261   1.479       .  S
O171       Ni187   1.932       .  S
O171        C177   1.275       .  A
O172        C177   1.276       .  A
C173        C274   1.484       .  S
O174        C176   1.273       .  A
O175       Ni186   1.919       .  S
C176        O182   1.277       .  A
C176        C257   1.493       .  S
C177        C265   1.493       .  S
H178        O179   0.966       .  S
O179       Ni187   1.933       .  S
O179       Ni181   1.930       .  S
O179       Ni186   1.932       .  S
O180       Ni181   1.931       .  S
Ni181       O185   1.923       .  S
Ni181       O183   1.949       .  S
O182       Ni187   1.948       .  S
C184        O185   1.274       .  A
C184        C278   1.491       .  S
N189        C194   1.350       .  A
N189        C193   1.356       .  A
N189        H221   1.043       .  S
N190        C197   1.360       .  A
N190        C198   1.350   1_554  A
N191        C196   1.357       .  A
N191        C195   1.344       .  A
N191        H222   1.039       .  S
N192        C199   1.344       .  A
N192        C200   1.353       .  A
C193        C201   1.378       .  A
C193        C209   1.402       .  A
C194        C210   1.422       .  A
C194        C202   1.395       .  A
C195        C203   1.385       .  A
C195        C212   1.401       .  A
C196        C211   1.419       .  A
C196        C204   1.388       .  A
C197        C209   1.411       .  A
C197        C205   1.381       .  A
C198        C212   1.420       .  A
C198        C206   1.390   1_556  A
C199        C207   1.389       .  A
C199        C210   1.413   1_556  A
C200        C208   1.385       .  A
C200        C211   1.419       .  A
C201        C202   1.373       .  A
C201        H213   1.082       .  S
C202        H214   1.081       .  S
C203        C204   1.380       .  A
C203        H215   1.083       .  S
C204        H216   1.082       .  S
C205        C206   1.372       .  A
C205        H217   1.082       .  S
C206        H218   1.081       .  S
C207        C208   1.380       .  A
C207        H219   1.083       .  S
C208        H220   1.082       .  S
C209        C266   1.503       .  S
C210        C295   1.478       .  S
C211        C269   1.508       .  S
C212        C285   1.465       .  S
N223        C228   1.341       .  A
N223        C227   1.354       .  A
N223        H255   1.041       .  S
N224        C231   1.349       .  A
N224        C232   1.341       .  A
N225        C230   1.358       .  A
N225        C229   1.359       .  A
N225        H256   1.043       .  S
N226        C233   1.354       .  A
N226        C234   1.356       .  A
C227        C235   1.391       .  A
C227        C243   1.421       .  A
C228        C244   1.397       .  A
C228        C236   1.382       .  A
C229        C237   1.391       .  A
C229        C246   1.428       .  A
C230        C245   1.418       .  A
C230        C238   1.382       .  A
C231        C243   1.412       .  A
C231        C239   1.385       .  A
C232        C246   1.409   1_565  A
C232        C240   1.391       .  A
C233        C241   1.384       .  A
C233        C244   1.413   1_545  A
C234        C242   1.387       .  A
C234        C245   1.416       .  A
C235        C236   1.379       .  A
C235        H247   1.080       .  S
C236        H248   1.082       .  S
C237        C238   1.378       .  A
C237        H249   1.080       .  S
C238        H250   1.082       .  S
C239        C240   1.379       .  A
C239        H251   1.082       .  S
C240        H252   1.083       .  S
C241        C242   1.374       .  A
C241        H253   1.083       .  S
C242        H254   1.082       .  S
C243        C262   1.495       .  S
C244        C305   1.487       .  S
C245        C258   1.506       .  S
C246        C315   1.492       .  S
C257        C258   1.352       .  D
C257        H259   1.087       .  S
C258        H260   1.086       .  S
C261        C262   1.347       .  D
C261        H263   1.087       .  S
C262        H264   1.086       .  S
C265        C266   1.350       .  D
C265        H267   1.087       .  S
C266        H268   1.086       .  S
C269        C270   1.347       .  D
C269        H271   1.086       .  S
C270        H272   1.088       .  S
C273        C274   1.352       .  D
C273        H275   1.085       .  S
C274        H276   1.086       .  S
C277        C278   1.357       .  D
C277        H279   1.086       .  S
C278        H280   1.086       .  S
C281        C282   1.412       .  A
C281        C286   1.398       .  A
C281        H287   1.083       .  S
C282        C283   1.402       .  A
C283        C284   1.381       .  A
C283        H288   1.082       .  S
C284        C285   1.400       .  A
C284        H289   1.084       .  S
C285        C286   1.398       .  A
C286        H290   1.083       .  S
C291        C292   1.400       .  A
C291        C296   1.397       .  A
C291        H297   1.082       .  S
C292        C293   1.401       .  A
C293        C294   1.382   1_554  A
C293        H298   1.084   1_554  S
C294        C295   1.401   1_556  A
C294        H299   1.083       .  S
C295        C296   1.408       .  A
C296        H300   1.083       .  S
C301        C302   1.406       .  A
C301        C306   1.400       .  A
C301        H307   1.083       .  S
C302        C303   1.397       .  A
C303        C304   1.385       .  A
C303        H308   1.084   1_565  S
C304        C305   1.408       .  A
C304        H309   1.083   1_565  S
C305        C306   1.407       .  A
C306        H310   1.081       .  S
C311        C312   1.405       .  A
C311        C316   1.404       .  A
C311        H317   1.083       .  S
C312        C313   1.396   1_545  A
C313        C314   1.384       .  A
C313        H318   1.084       .  S
C314        C315   1.408   1_565  A
C314        H319   1.083       .  S
C315        C316   1.406       .  A
C316        H320   1.083       .  S
C321        C322   1.398       .  A
C321        C326   1.398       .  A
C321        H327   1.083       .  S
C322        C323   1.407       .  A
C323        C324   1.385       .  A
C323        H328   1.081       .  S
C324        C325   1.396       .  A
C324        H329   1.083   1_655  S
C325        C326   1.410       .  A
C326        H330   1.083       .  S
C331        C332   1.408       .  A
C331        C336   1.402       .  A
C331        H337   1.083       .  S
C332        C333   1.405       .  A
C333        C334   1.383       .  A
C333        H338   1.083       .  S
C334        C335   1.397       .  A
C334        H339   1.084       .  S
C335        C336   1.403       .  A
C336        H340   1.083       .  S
C341        C342   1.348   1_655  D
C341        H343   1.083   1_554  S
C342        H344   1.085       .  S
C345        C346   1.348   1_655  D
C345        H347   1.087       .  S
C346        H348   1.086       .  S
C349        C350   1.348   1_565  D
C349        H351   1.087       .  S
C350        H352   1.086       .  S
C353        C354   1.354       .  D
C353        H355   1.086   1_565  S
C354        H356   1.086   1_554  S
C357        C358   1.345       .  D
C357        H359   1.087   1_565  S
C358        H360   1.086   1_655  S
C361        C362   1.352       .  D
C361        H363   1.086       .  S
C362        H364   1.087   1_655  S
