geometry optimzed in LAMMPS
_audit_creation_date              2020-11-30 
_audit_creation_method            'lammps2cif' 
_symmetry_space_group_name_H-M    'P1' 
_symmetry_Int_Tables_number       1 
_symmetry_cell_setting            triclinic 
loop_ 
_symmetry_equiv_pos_as_xyz 
  x,y,z 
_cell_length_a                    29.95129255 
_cell_length_b                    29.95097773001021 
_cell_length_c                    29.952109978745828 
_cell_angle_alpha                 89.99918900234586 
_cell_angle_beta                  89.99887777047978 
_cell_angle_gamma                 90.00004730812597 
loop_ 
_atom_site_label 
_atom_site_type_symbol 
_atom_site_fract_x 
_atom_site_fract_y 
_atom_site_fract_z 
_atom_site_charge 
C1          C  0.24999479  0.21796231  0.28202799     0.82500
N2          N  0.21795960  0.25000482  0.28202115    -0.75800
C3          C  0.21795961  0.28204628  0.24998534     0.84900
N4          N  0.25000350  0.28204083  0.21795202    -0.75800
C5          C  0.28204316  0.25000276  0.21795055     0.85000
N6          N  0.28203440  0.21796575  0.24999060    -0.77500
O7          O  0.95476029  0.45478265  0.28726784    -0.72200
O8          O  0.04523005  0.54523129  0.28727097    -0.72200
O9          O  0.95477071  0.54524196  0.28726897    -0.72300
O10         O  0.04521902  0.45477165  0.28726995    -0.72300
O11         O  0.04523777  0.45478933  0.21269383    -0.72300
O12         O  0.95475792  0.54522839  0.21269284    -0.72200
O13         O  0.04521758  0.54524907  0.21269485    -0.72200
O14         O  0.95477907  0.45476909  0.21269166    -0.72300
Ni15       Ni  0.99999489  0.50000693  0.28994977     1.25400
Ni16       Ni  0.99999818  0.50000914  0.21001296     1.25400
C17         C  0.94002414  0.44002872  0.24997920     0.90000
C18         C  0.05997028  0.55998668  0.24998349     0.89900
C19         C  0.94001667  0.55998044  0.24998085     0.90000
C20         C  0.05997546  0.44003458  0.24998203     0.90100
C21         C  0.78203405  0.71796881  0.24998900     0.82500
N22         N  0.74999032  0.71797351  0.21795693    -0.75800
C23         C  0.71795246  0.75001322  0.21795314     0.84900
N24         N  0.71796269  0.78205260  0.24998998    -0.75800
C25         C  0.75000214  0.78205654  0.28202630     0.85000
N26         N  0.78203571  0.75001252  0.28202155    -0.77500
O27         O  0.21271191  0.04524296  0.45477379    -0.72200
O28         O  0.21271801  0.95476777  0.54521503    -0.72200
O29         O  0.21271532  0.04522695  0.54523143    -0.72300
O30         O  0.21271562  0.95478447  0.45475836    -0.72300
O31         O  0.28729376  0.95477138  0.45477025    -0.72300
O32         O  0.28729340  0.04524514  0.54521199    -0.72200
O33         O  0.28729617  0.95478566  0.54522735    -0.72200
O34         O  0.28729006  0.04523020  0.45475398    -0.72300
Ni35       Ni  0.21003490  0.00000555  0.49999488     1.25400
Ni36       Ni  0.28997376  0.00000832  0.49999084     1.25400
C37         C  0.24999979  0.05998162  0.44001625     0.90000
C38         C  0.25000780  0.94003040  0.55996749     0.89900
C39         C  0.25000434  0.05998145  0.55996887     0.90000
C40         C  0.25000473  0.94003245  0.44001745     0.90100
O41         O  0.78728920  0.95477098  0.45476750    -0.72200
O42         O  0.78728751  0.04524569  0.54520712    -0.72200
O43         O  0.78728927  0.95478678  0.54522463    -0.72300
O44         O  0.78728677  0.04522923  0.45475005    -0.72300
O45         O  0.71270858  0.04524321  0.45476767    -0.72300
O46         O  0.71271111  0.95476942  0.54521074    -0.72200
O47         O  0.71270938  0.04522836  0.54522471    -0.72200
O48         O  0.71271102  0.95478469  0.45475326    -0.72300
Ni49       Ni  0.78996852  0.00000811  0.49998727     1.25400
Ni50       Ni  0.71002963  0.00000625  0.49998918     1.25400
C51         C  0.75000057  0.94003288  0.44001322     0.90000
C52         C  0.74999824  0.05998302  0.55996231     0.89900
C53         C  0.75000056  0.94003295  0.55996514     0.90000
C54         C  0.74999723  0.05998184  0.44001197     0.90100
C55         C  0.28204091  0.75001515  0.78203958     0.82500
N56         N  0.25000003  0.71797827  0.78203836    -0.75800
C57         C  0.21795890  0.71797212  0.75000360     0.84900
N58         N  0.21796313  0.75001135  0.71796552    -0.75800
C59         C  0.24999961  0.78205250  0.71795823     0.85000
N60         N  0.28203628  0.78205010  0.74999729    -0.77500
O61         O  0.04524320  0.45478573  0.71271740    -0.72200
O62         O  0.95476667  0.54522823  0.71271562    -0.72200
O63         O  0.04522549  0.54524532  0.71272034    -0.72300
O64         O  0.95478388  0.45476881  0.71271202    -0.72300
O65         O  0.95476247  0.45478076  0.78728813    -0.72300
O66         O  0.04523591  0.54522631  0.78729645    -0.72200
O67         O  0.95477676  0.54524028  0.78729169    -0.72200
O68         O  0.04522190  0.45476657  0.78729349    -0.72300
Ni69       Ni  0.00000509  0.50000705  0.71003609     1.25400
Ni70       Ni  0.99999912  0.50000324  0.78997276     1.25400
C71         C  0.05997957  0.44003018  0.75000581     0.90000
C72         C  0.94002489  0.55998047  0.75000336     0.89900
C73         C  0.05997676  0.55998265  0.75000954     0.90000
C74         C  0.94002615  0.44002893  0.74999866     0.90100
C75         C  0.78203921  0.28204485  0.74999016     0.82500
N76         N  0.75000148  0.28203447  0.78202944    -0.75800
C77         C  0.71796232  0.24999610  0.78203327     0.84900
N78         N  0.71796521  0.21796355  0.74998958    -0.75800
C79         C  0.74999880  0.21796496  0.71794619     0.85000
N80         N  0.78203367  0.25000781  0.71795072    -0.77500
O81         O  0.45478230  0.78730604  0.95475380    -0.72200
O82         O  0.54522270  0.78730593  0.04522748    -0.72200
O83         O  0.54524032  0.78730276  0.95477029    -0.72300
O84         O  0.45476429  0.78730931  0.04521100    -0.72300
O85         O  0.45477737  0.71273039  0.04523020    -0.72300
O86         O  0.54522188  0.71272380  0.95475810    -0.72200
O87         O  0.54523591  0.71272704  0.04521520    -0.72200
O88         O  0.45476398  0.71272716  0.95477309    -0.72300
Ni89       Ni  0.50000255  0.78998642  0.99999059     1.25400
Ni90       Ni  0.49999973  0.71004674  0.99999437     1.25400
C91         C  0.44002797  0.75001660  0.94001636     0.90000
C92         C  0.55997468  0.75001647  0.05996815     0.89900
C93         C  0.55997658  0.75001225  0.94001718     0.90000
C94         C  0.44002454  0.75002085  0.05996693     0.90100
O95         O  0.54524119  0.28727104  0.95476869    -0.72200
O96         O  0.45476563  0.28727568  0.04520926    -0.72200
O97         O  0.54522354  0.28727419  0.04522487    -0.72300
O98         O  0.45478291  0.28727262  0.95475253    -0.72300
O99         O  0.45476586  0.21269370  0.95477150    -0.72300
O100        O  0.54523824  0.21269525  0.04521300    -0.72200
O101        O  0.45477987  0.21269674  0.04522855    -0.72200
O102        O  0.54522440  0.21269206  0.95475623    -0.72300
Ni103      Ni  0.50000338  0.28995371  0.99998862     1.25400
Ni104      Ni  0.50000204  0.21001398  0.99999235     1.25400
C105        C  0.55997915  0.24998094  0.94001642     0.90000
C106        C  0.44002687  0.24998702  0.05996565     0.89900
C107        C  0.55997619  0.24998515  0.05996560     0.90000
C108        C  0.44002851  0.24998300  0.94001580     0.90100
C109        C  0.75000093  0.78205081  0.71795144     0.82500
N110        N  0.78203769  0.75000979  0.71795708    -0.75800
C111        C  0.78203928  0.71796739  0.74999201     0.84900
N112        N  0.74999563  0.71797045  0.78202538    -0.75800
C113        C  0.71795456  0.75000699  0.78202801     0.85000
N114        N  0.71796161  0.78204502  0.74998901    -0.77500
C115        C  0.78203743  0.28204599  0.24998335     0.83300
N116        N  0.78203228  0.25000780  0.28202223    -0.75800
C117        C  0.74999304  0.21796950  0.28203227     0.84900
N118        N  0.71795492  0.21797352  0.24999473    -0.75800
C119        C  0.71795146  0.25000737  0.21795163     0.85000
N120        N  0.74999497  0.28204150  0.21794995    -0.77500
C121        C  0.25000594  0.21796453  0.71795290     0.82500
N122        N  0.28204103  0.21796419  0.74999356    -0.75800
C123        C  0.28204467  0.24999689  0.78203725     0.84900
N124        N  0.25000435  0.28203415  0.78203609    -0.75800
C125        C  0.21796491  0.28204340  0.74999976     0.85000
N126        N  0.21796998  0.25000633  0.71796021    -0.77500
C127        C  0.28204017  0.75001415  0.21795106     0.82500
N128        N  0.25000223  0.71797433  0.21795737    -0.75800
C129        C  0.21796269  0.71796672  0.24999493     0.84900
N130        N  0.21796532  0.75000766  0.28203045    -0.75800
C131        C  0.24999899  0.78205186  0.28203260     0.85000
N132        N  0.28203406  0.78205068  0.24999074    -0.77500
C133        C  0.31592469  0.24999191  0.81591788    -0.16300
C134        C  0.34438075  0.24998796  0.84437272     0.07800
C135        C  0.37770450  0.24998446  0.87769370     0.09600
C136        C  0.40616115  0.24998291  0.90614858    -0.17100
C137        C  0.59384114  0.24998680  0.09383498    -0.16300
C138        C  0.62229461  0.24999179  0.12229286     0.07800
C139        C  0.65561515  0.24999928  0.15561683     0.09600
C140        C  0.68407025  0.25000464  0.18407238    -0.17100
C141        C  0.59384149  0.75000986  0.90614659    -0.16300
C142        C  0.62229475  0.75000818  0.87768739     0.07800
C143        C  0.65561550  0.75000699  0.84436245     0.09600
C144        C  0.68407153  0.75000662  0.81590667    -0.17100
C145        C  0.40615679  0.75002294  0.09383501    -0.16300
C146        C  0.37770034  0.75002283  0.12229121     0.07800
C147        C  0.34437676  0.75002063  0.15561364     0.09600
C148        C  0.31592045  0.75001761  0.18406935    -0.17100
C149        C  0.68408341  0.24999062  0.81591593    -0.16300
C150        C  0.65562768  0.24998616  0.84437189     0.07800
C151        C  0.62230399  0.24998182  0.87769370     0.09600
C152        C  0.59384716  0.24997999  0.90614918    -0.17100
C153        C  0.09384892  0.40616293  0.75000667    -0.16300
C154        C  0.12230571  0.37770646  0.75000688     0.07800
C155        C  0.15562857  0.34438254  0.75000582     0.09600
C156        C  0.18408419  0.31592551  0.75000341    -0.17100
C157        C  0.90615612  0.59384848  0.75000258    -0.16300
C158        C  0.87769975  0.62230542  0.75000083     0.07800
C159        C  0.84437700  0.65562959  0.74999755     0.09600
C160        C  0.81592107  0.68408629  0.74999451    -0.17100
C161        C  0.90615584  0.40616292  0.74999533    -0.16300
C162        C  0.87769732  0.37770832  0.74999297     0.07800
C163        C  0.84437338  0.34438575  0.74999124     0.09600
C164        C  0.81591822  0.31592839  0.74999043    -0.17100
C165        C  0.31592408  0.75001595  0.81591739    -0.16300
C166        C  0.34438242  0.75001633  0.84437013     0.07800
C167        C  0.37770712  0.75001649  0.87769052     0.09600
C168        C  0.40616270  0.75001654  0.90614670    -0.17100
C169        C  0.18407808  0.68409020  0.75000639    -0.16300
C170        C  0.15562241  0.65563330  0.75000865     0.07800
C171        C  0.12229991  0.62230911  0.75001096     0.09600
C172        C  0.09384411  0.59385176  0.75001167    -0.17100
C173        C  0.74999373  0.18408904  0.31591348    -0.16300
C174        C  0.74999442  0.15563129  0.34436760     0.07800
C175        C  0.74999537  0.12230579  0.37768783     0.09600
C176        C  0.74999620  0.09384863  0.40614320    -0.17100
C177        C  0.75000150  0.90616845  0.59383642    -0.16300
C178        C  0.75000266  0.87771446  0.62229507     0.07800
C179        C  0.75000379  0.84439176  0.65561835     0.09600
C180        C  0.75000354  0.81593411  0.68407273    -0.17100
C181        C  0.74999785  0.09385014  0.59383050    -0.16300
C182        C  0.74999788  0.12230637  0.62228638     0.07800
C183        C  0.74999800  0.15563020  0.65560805     0.09600
C184        C  0.74999833  0.18408621  0.68406349    -0.17100
C185        C  0.24999809  0.81593321  0.31591266    -0.16300
C186        C  0.24999983  0.84438961  0.34436765     0.07800
C187        C  0.25000285  0.87771211  0.37769057     0.09600
C188        C  0.25000462  0.90616682  0.40614787    -0.17100
C189        C  0.25000503  0.18408465  0.68407099    -0.16300
C190        C  0.25000478  0.15562751  0.65561657     0.07800
C191        C  0.25000451  0.12230301  0.62229527     0.09600
C192        C  0.25000434  0.09384724  0.59383876    -0.17100
C193        C  0.25000877  0.90616297  0.59383587    -0.16300
C194        C  0.25000653  0.87770761  0.62229314     0.07800
C195        C  0.25000285  0.84438593  0.65561752     0.09600
C196        C  0.25000048  0.81593137  0.68407496    -0.17100
C197        C  0.59383974  0.75001647  0.09383780    -0.16300
C198        C  0.62229326  0.75001625  0.12229591     0.07800
C199        C  0.65561388  0.75001564  0.15562010     0.09600
C200        C  0.68406952  0.75001467  0.18407537    -0.17100
C201        C  0.75000212  0.90616922  0.40614222    -0.16300
C202        C  0.75000499  0.87771666  0.37768304     0.07800
C203        C  0.75000757  0.84439592  0.34435891     0.09600
C204        C  0.75000702  0.81593962  0.31590410    -0.17100
C205        C  0.09384002  0.59385361  0.24998514    -0.16300
C206        C  0.12229945  0.62230747  0.24998839     0.07800
C207        C  0.15562573  0.65562808  0.24999270     0.09600
C208        C  0.18408273  0.68408372  0.24999506    -0.17100
C209        C  0.90615770  0.40615921  0.24997781    -0.16300
C210        C  0.87770175  0.37770227  0.24997661     0.07800
C211        C  0.84437826  0.34437963  0.24997620     0.09600
C212        C  0.81592081  0.31592482  0.24997804    -0.17100
C213        C  0.81591247  0.68408476  0.24998771    -0.16300
C214        C  0.84436679  0.65562665  0.24998566     0.07800
C215        C  0.87768903  0.62230237  0.24998277     0.09600
C216        C  0.90614618  0.59384638  0.24998103    -0.17100
C217        C  0.31592667  0.25000026  0.18407197    -0.16300
C218        C  0.34438361  0.24999674  0.15561690     0.07800
C219        C  0.37770592  0.24999238  0.12229317     0.09600
C220        C  0.40616061  0.24998918  0.09383520    -0.17100
C221        C  0.24999021  0.18407981  0.31590756    -0.16300
C222        C  0.24998974  0.15562237  0.34436224     0.07800
C223        C  0.24999274  0.12229956  0.37768552     0.09600
C224        C  0.24999661  0.09384579  0.40614451    -0.17100
C225        C  0.09384476  0.40616721  0.24998229    -0.16300
C226        C  0.12230138  0.37771055  0.24998203     0.07800
C227        C  0.15562406  0.34438634  0.24998174     0.09600
C228        C  0.18407951  0.31592913  0.24998255    -0.17100
loop_ 
_geom_bond_atom_site_label_1 
_geom_bond_atom_site_label_2 
_geom_bond_distance 
_geom_bond_site_symmetry_2 
_ccdc_geom_bond_type 
C1            N2   1.357       .  A
C1            N6   1.357       .  A
C1          C221   1.435       .  S
N2            C3   1.357       .  A
C3            N4   1.357       .  A
C3          C228   1.435       .  S
N4            C5   1.357       .  A
C5            N6   1.357       .  A
C5          C217   1.435       .  S
O7          Ni15   1.917       .  S
O7           C17   1.280       .  A
O8          Ni15   1.917   1_455  S
O8           C18   1.280       .  A
O9          Ni15   1.917       .  S
O9           C19   1.280       .  A
O10         Ni15   1.917   1_455  S
O10          C20   1.280       .  A
O11         Ni16   1.917   1_455  S
O11          C20   1.280       .  A
O12         Ni16   1.917       .  S
O12          C19   1.280       .  A
O13         Ni16   1.917   1_455  S
O13          C18   1.280       .  A
O14         Ni16   1.917       .  S
O14          C17   1.280       .  A
Ni15        Ni16   2.394       .  S
C17         C209   1.435       .  S
C18         C205   1.435       .  S
C19         C216   1.435       .  S
C20         C225   1.435       .  S
C21          N22   1.357       .  A
C21          N26   1.357       .  A
C21         C213   1.435       .  S
N22          C23   1.357       .  A
C23          N24   1.357       .  A
C23         C200   1.435       .  S
N24          C25   1.357       .  A
C25          N26   1.357       .  A
C25         C204   1.435       .  S
O27         Ni35   1.917       .  S
O27          C37   1.280       .  A
O28         Ni35   1.917   1_565  S
O28          C38   1.280       .  A
O29         Ni35   1.917       .  S
O29          C39   1.280       .  A
O30         Ni35   1.917   1_565  S
O30          C40   1.280       .  A
O31         Ni36   1.917   1_565  S
O31          C40   1.280       .  A
O32         Ni36   1.917       .  S
O32          C39   1.280       .  A
O33         Ni36   1.917   1_565  S
O33          C38   1.280       .  A
O34         Ni36   1.917       .  S
O34          C37   1.280       .  A
Ni35        Ni36   2.394       .  S
C37         C224   1.435       .  S
C38         C193   1.435       .  S
C39         C192   1.435       .  S
C40         C188   1.435       .  S
O41         Ni49   1.917   1_565  S
O41          C51   1.280       .  A
O42         Ni49   1.917       .  S
O42          C52   1.280       .  A
O43         Ni49   1.917   1_565  S
O43          C53   1.280       .  A
O44         Ni49   1.917       .  S
O44          C54   1.280       .  A
O45         Ni50   1.917       .  S
O45          C54   1.280       .  A
O46         Ni50   1.917   1_565  S
O46          C53   1.280       .  A
O47         Ni50   1.917       .  S
O47          C52   1.280       .  A
O48         Ni50   1.917   1_565  S
O48          C51   1.280       .  A
Ni49        Ni50   2.394       .  S
C51         C201   1.435       .  S
C52         C181   1.435       .  S
C53         C177   1.435       .  S
C54         C176   1.435       .  S
C55          N56   1.357       .  A
C55          N60   1.357       .  A
C55         C165   1.435       .  S
N56          C57   1.357       .  A
C57          N58   1.357       .  A
C57         C169   1.435       .  S
N58          C59   1.357       .  A
C59          N60   1.357       .  A
C59         C196   1.435       .  S
O61         Ni69   1.917       .  S
O61          C71   1.280       .  A
O62         Ni69   1.917   1_655  S
O62          C72   1.280       .  A
O63         Ni69   1.917       .  S
O63          C73   1.280       .  A
O64         Ni69   1.917   1_655  S
O64          C74   1.280       .  A
O65         Ni70   1.917       .  S
O65          C74   1.280       .  A
O66         Ni70   1.917   1_455  S
O66          C73   1.280       .  A
O67         Ni70   1.917       .  S
O67          C72   1.280       .  A
O68         Ni70   1.917   1_455  S
O68          C71   1.280       .  A
Ni69        Ni70   2.394   1_455  S
C71         C153   1.435       .  S
C72         C157   1.435       .  S
C73         C172   1.435       .  S
C74         C161   1.435       .  S
C75          N76   1.357       .  A
C75          N80   1.357       .  A
C75         C164   1.435       .  S
N76          C77   1.357       .  A
C77          N78   1.357       .  A
C77         C149   1.435       .  S
N78          C79   1.357       .  A
C79          N80   1.357       .  A
C79         C184   1.435       .  S
O81         Ni89   1.917       .  S
O81          C91   1.280       .  A
O82         Ni89   1.917   1_554  S
O82          C92   1.280       .  A
O83         Ni89   1.917       .  S
O83          C93   1.280       .  A
O84         Ni89   1.917   1_554  S
O84          C94   1.280       .  A
O85         Ni90   1.917   1_554  S
O85          C94   1.280       .  A
O86         Ni90   1.917       .  S
O86          C93   1.280       .  A
O87         Ni90   1.917   1_554  S
O87          C92   1.280       .  A
O88         Ni90   1.917       .  S
O88          C91   1.280       .  A
Ni89        Ni90   2.394       .  S
C91         C168   1.435       .  S
C92         C197   1.435       .  S
C93         C141   1.435       .  S
C94         C145   1.435       .  S
O95        Ni103   1.917       .  S
O95         C105   1.280       .  A
O96        Ni103   1.917   1_554  S
O96         C106   1.280       .  A
O97        Ni103   1.917   1_554  S
O97         C107   1.280       .  A
O98        Ni103   1.917       .  S
O98         C108   1.280       .  A
O99        Ni104   1.917       .  S
O99         C108   1.280       .  A
O100       Ni104   1.917   1_554  S
O100        C107   1.280       .  A
O101       Ni104   1.917   1_554  S
O101        C106   1.280       .  A
O102       Ni104   1.917       .  S
O102        C105   1.280       .  A
Ni103      Ni104   2.394       .  S
C105        C152   1.435       .  S
C106        C220   1.435       .  S
C107        C137   1.435       .  S
C108        C136   1.435       .  S
C109        N110   1.357       .  A
C109        N114   1.357       .  A
C109        C180   1.435       .  S
N110        C111   1.357       .  A
C111        N112   1.357       .  A
C111        C160   1.435       .  S
N112        C113   1.357       .  A
C113        N114   1.357       .  A
C113        C144   1.435       .  S
C115        N116   1.357       .  A
C115        N120   1.357       .  A
C115        C212   1.435       .  S
N116        C117   1.357       .  A
C117        N118   1.357       .  A
C117        C173   1.435       .  S
N118        C119   1.357       .  A
C119        N120   1.357       .  A
C119        C140   1.435       .  S
C121        N122   1.357       .  A
C121        N126   1.357       .  A
C121        C189   1.435       .  S
N122        C123   1.357       .  A
C123        N124   1.357       .  A
C123        C133   1.435       .  S
N124        C125   1.357       .  A
C125        N126   1.357       .  A
C125        C156   1.435       .  S
C127        N128   1.357       .  A
C127        N132   1.357       .  A
C127        C148   1.435       .  S
N128        C129   1.357       .  A
C129        N130   1.357       .  A
C129        C208   1.435       .  S
N130        C131   1.357       .  A
C131        N132   1.357       .  A
C131        C185   1.435       .  S
C133        C134   1.205       .  T
C134        C135   1.411       .  S
C135        C136   1.205       .  T
C137        C138   1.205       .  T
C138        C139   1.411       .  S
C139        C140   1.205       .  T
C141        C142   1.205       .  T
C142        C143   1.411       .  S
C143        C144   1.205       .  T
C145        C146   1.205       .  T
C146        C147   1.411       .  S
C147        C148   1.205       .  T
C149        C150   1.205       .  T
C150        C151   1.411       .  S
C151        C152   1.205       .  T
C153        C154   1.205       .  T
C154        C155   1.411       .  S
C155        C156   1.205       .  T
C157        C158   1.205       .  T
C158        C159   1.411       .  S
C159        C160   1.205       .  T
C161        C162   1.205       .  T
C162        C163   1.411       .  S
C163        C164   1.205       .  T
C165        C166   1.205       .  T
C166        C167   1.411       .  S
C167        C168   1.205       .  T
C169        C170   1.205       .  T
C170        C171   1.411       .  S
C171        C172   1.205       .  T
C173        C174   1.205       .  T
C174        C175   1.411       .  S
C175        C176   1.205       .  T
C177        C178   1.205       .  T
C178        C179   1.411       .  S
C179        C180   1.205       .  T
C181        C182   1.205       .  T
C182        C183   1.411       .  S
C183        C184   1.205       .  T
C185        C186   1.205       .  T
C186        C187   1.411       .  S
C187        C188   1.205       .  T
C189        C190   1.205       .  T
C190        C191   1.411       .  S
C191        C192   1.205       .  T
C193        C194   1.205       .  T
C194        C195   1.411       .  S
C195        C196   1.205       .  T
C197        C198   1.205       .  T
C198        C199   1.411       .  S
C199        C200   1.205       .  T
C201        C202   1.205       .  T
C202        C203   1.411       .  S
C203        C204   1.205       .  T
C205        C206   1.205       .  T
C206        C207   1.411       .  S
C207        C208   1.205       .  T
C209        C210   1.205       .  T
C210        C211   1.411       .  S
C211        C212   1.205       .  T
C213        C214   1.205       .  T
C214        C215   1.411       .  S
C215        C216   1.205       .  T
C217        C218   1.205       .  T
C218        C219   1.411       .  S
C219        C220   1.205       .  T
C221        C222   1.205       .  T
C222        C223   1.411       .  S
C223        C224   1.205       .  T
C225        C226   1.205       .  T
C226        C227   1.411       .  S
C227        C228   1.205       .  T
