geometry optimzed in LAMMPS
_audit_creation_date              2020-12-01 
_audit_creation_method            'lammps2cif' 
_symmetry_space_group_name_H-M    'P1' 
_symmetry_Int_Tables_number       1 
_symmetry_cell_setting            triclinic 
loop_ 
_symmetry_equiv_pos_as_xyz 
  x,y,z 
_cell_length_a                    27.13421155 
_cell_length_b                    27.94011914925736 
_cell_length_c                    28.073475809137133 
_cell_angle_alpha                 90.26692517877336 
_cell_angle_beta                  89.7673708462226 
_cell_angle_gamma                 89.57529070040772 
loop_ 
_atom_site_label 
_atom_site_type_symbol 
_atom_site_fract_x 
_atom_site_fract_y 
_atom_site_fract_z 
_atom_site_charge 
C1          C  0.23549990  0.20640736  0.28195314     0.79500
N2          N  0.20053908  0.24170650  0.28100010    -0.78800
C3          C  0.20159276  0.27603558  0.24671761     0.82000
N4          N  0.23726455  0.27469489  0.21272733    -0.78700
C5          C  0.27197813  0.23955632  0.21305587     0.82000
N6          N  0.27142200  0.20607419  0.24795686    -0.80500
O7          O  0.04787718  0.55450475  0.29054000    -0.73700
O8          O  0.94300417  0.45473800  0.29131557    -0.74600
O9          O  0.04751974  0.45187215  0.28867059    -0.63300
O10         O  0.94391568  0.55706184  0.29188857    -0.71700
O11         O  0.94265136  0.55616800  0.21331110    -0.71200
O12         O  0.04662645  0.45309564  0.20985642    -0.62500
O13         O  0.94206616  0.45481648  0.21216931    -0.75000
O14         O  0.04839951  0.55438229  0.21214351    -0.73800
Cu15       Cu  0.99563305  0.50454546  0.29334858     1.04600
Cu16       Cu  0.99486877  0.50477418  0.20917507     1.04300
C17         C  0.06528641  0.57038063  0.25150822     0.92500
C18         C  0.92633528  0.43881444  0.25193168     0.91700
C19         C  0.06304056  0.43547143  0.24858566     0.83800
C20         C  0.92671591  0.57331439  0.25276551     0.90100
C21         C  0.77834018  0.72496745  0.25245239     0.79500
N22         N  0.77930372  0.75862318  0.28751950    -0.78800
C23         C  0.74596548  0.79511890  0.28785017     0.82000
N24         N  0.71174261  0.79819451  0.25281952    -0.78700
C25         C  0.71076772  0.76478276  0.21758060     0.82000
N26         N  0.74394769  0.72813394  0.21753483    -0.80500
O27         O  0.29794381  0.94594124  0.54631382    -0.73700
O28         O  0.28947963  0.04937093  0.44648357    -0.74600
O29         O  0.29103788  0.04725149  0.54853923    -0.63300
O30         O  0.29627019  0.94794864  0.44463076    -0.71700
O31         O  0.21516422  0.94173134  0.44827544    -0.71200
O32         O  0.20943105  0.04406909  0.54863037    -0.62500
O33         O  0.20790259  0.04366569  0.44729960    -0.75000
O34         O  0.21620664  0.94270637  0.54864160    -0.73800
Cu35       Cu  0.29657592  0.99787874  0.49644284     1.04600
Cu36       Cu  0.20938976  0.99298953  0.49821089     1.04300
C37         C  0.25825896  0.92812834  0.56307700     0.92500
C38         C  0.24726492  0.06234612  0.43085978     0.91700
C39         C  0.24941222  0.06113725  0.56523116     0.83800
C40         C  0.25645371  0.92850701  0.43040318     0.90100
O41         O  0.70960667  0.95857428  0.45021775    -0.73700
O42         O  0.70992273  0.05893644  0.55329972    -0.74600
O43         O  0.71003052  0.05970770  0.45124062    -0.63300
O44         O  0.70969948  0.95701530  0.55153025    -0.71700
O45         O  0.79157287  0.95715728  0.55152300    -0.71200
O46         O  0.79189842  0.05786908  0.45028694    -0.62500
O47         O  0.79148236  0.05942511  0.55170325    -0.75000
O48         O  0.79118950  0.95617955  0.45101238    -0.73800
Cu49       Cu  0.70694678  0.00867727  0.50163164     1.04600
Cu50       Cu  0.79435867  0.00772337  0.50117293     1.04300
C51         C  0.75023698  0.94113635  0.43457315     0.92500
C52         C  0.75073390  0.07521670  0.56889511     0.91700
C53         C  0.75110905  0.07423469  0.43446630     0.83800
C54         C  0.75076859  0.94074513  0.56694639     0.90100
C55         C  0.22416397  0.71000524  0.74085022     0.79500
N56         N  0.25953623  0.71009510  0.77490187    -0.78800
C57         C  0.29587111  0.74317337  0.77395883     0.82000
N58         N  0.29664392  0.77636925  0.73877179    -0.78700
C59         C  0.26077466  0.77745467  0.70499053     0.82000
N60         N  0.22448872  0.74402974  0.70634348    -0.80500
O61         O  0.94854958  0.45229045  0.79409059    -0.73700
O62         O  0.05884207  0.54760364  0.79052216    -0.74600
O63         O  0.95368476  0.55428778  0.79046531    -0.63300
O64         O  0.05305552  0.44603177  0.79380185    -0.71700
O65         O  0.05438085  0.44488696  0.71467144    -0.71200
O66         O  0.95253525  0.54956306  0.71148636    -0.62500
O67         O  0.05686319  0.54687444  0.71172785    -0.75000
O68         O  0.95103223  0.44731686  0.71543433    -0.73800
Cu69       Cu  0.00352274  0.50024591  0.79504450     1.04600
Cu70       Cu  0.00369267  0.49713977  0.71065384     1.04300
C71         C  0.93328983  0.43359481  0.75527844     0.92500
C72         C  0.07495827  0.56284784  0.75059129     0.91700
C73         C  0.93740661  0.56873614  0.75028432     0.83800
C74         C  0.06893976  0.42831563  0.75452735     0.90100
C75         C  0.78723228  0.28316444  0.75764249     0.79500
N76         N  0.75321650  0.28178733  0.79323696    -0.78800
C77         C  0.71735261  0.24812204  0.79278173     0.82000
N78         N  0.71535048  0.21588757  0.75638855    -0.78700
C79         C  0.74938815  0.21709162  0.72073764     0.82000
N80         N  0.78523523  0.25075399  0.72150339    -0.80500
O81         O  0.45368662  0.71384181  0.04295766    -0.73700
O82         O  0.56334881  0.72358316  0.94701014    -0.74600
O83         O  0.55754375  0.72477632  0.04836692    -0.63300
O84         O  0.46003672  0.71179750  0.94181874    -0.71700
O85         O  0.44945271  0.79064472  0.94257946    -0.71200
O86         O  0.55046235  0.80385536  0.04668255    -0.62500
O87         O  0.55337986  0.80248111  0.94480302    -0.75000
O88         O  0.44729007  0.79226879  0.04435880    -0.73800
Cu89       Cu  0.50907127  0.71580359  0.99508019     1.04600
Cu90       Cu  0.49979621  0.80007375  0.99447901     1.04300
C91         C  0.43328566  0.75165320  0.05974941     0.92500
C92         C  0.57505901  0.76439131  0.93018102     0.91700
C93         C  0.56914383  0.76595192  0.06468141     0.83800
C94         C  0.43917225  0.74936478  0.92556021     0.90100
O95         O  0.54207264  0.28484684  0.05471621    -0.73700
O96         O  0.44053747  0.28098697  0.95086100    -0.74600
O97         O  0.43787893  0.28029649  0.05209895    -0.63300
O98         O  0.54560509  0.28554726  0.95340108    -0.71700
O99         O  0.54973928  0.20624751  0.95257022    -0.71200
O100        O  0.44237732  0.20095034  0.05186173    -0.62500
O101        O  0.44504057  0.20159612  0.95049144    -0.75000
O102        O  0.54700600  0.20554911  0.05382208    -0.72200
Cu103      Cu  0.49136760  0.28568143  0.00273881     1.04600
Cu104      Cu  0.49616182  0.20082606  0.00210982     1.04300
C105        C  0.56061713  0.24591374  0.07059182     0.92500
C106        C  0.42657112  0.24053476  0.93457676     0.91700
C107        C  0.42347264  0.23988894  0.06786385     0.83800
C108        C  0.56480388  0.24670329  0.93746528     0.90100
C109        C  0.75968690  0.79367608  0.71190059     0.79500
N110        N  0.79391465  0.75779091  0.71125190    -0.78800
C111        C  0.79266262  0.72234651  0.74418452     0.82000
N112        N  0.75696026  0.72317762  0.77827567    -0.78700
C113        C  0.72299060  0.75918766  0.78014608     0.82000
N114        N  0.72476512  0.79388846  0.74663972    -0.80500
C115        C  0.78270514  0.28718053  0.25105583     0.79500
N116        N  0.78519569  0.25187357  0.28389300    -0.78800
C117        C  0.75191137  0.21595268  0.28422477     0.82000
N118        N  0.71618950  0.21526835  0.25030474    -0.78700
C119        C  0.71278153  0.25042327  0.21699931     0.82000
N120        N  0.74619190  0.28628776  0.21826416    -0.80500
C121        C  0.24170945  0.19992139  0.71814172     0.79500
N122        N  0.20950601  0.23727663  0.71633283    -0.78800
C123        C  0.20897159  0.27086087  0.75146144     0.82000
N124        N  0.24217993  0.26733268  0.78735823    -0.78700
C125        C  0.27509592  0.23054224  0.78935559     0.82000
N126        N  0.27408246  0.19649709  0.75471795    -0.80500
C127        C  0.29248441  0.74523373  0.21690885     0.79500
N128        N  0.29372257  0.77863697  0.25219686    -0.78800
C129        C  0.25945318  0.77825300  0.28757197     0.82000
N130        N  0.22387463  0.74440125  0.28761282    -0.78700
C131        C  0.22261775  0.71071192  0.25269373     0.82000
N132        N  0.25683257  0.71136791  0.21729072    -0.80500
C133        C  0.36245708  0.21375846  0.81760298    -0.02600
C134        C  0.31357340  0.22990006  0.82737618     0.07100
C135        C  0.30258577  0.24886712  0.87324408    -0.02700
C136        C  0.34024599  0.25502154  0.90704902    -0.02700
C137        C  0.38832214  0.23838926  0.89730598     0.07300
C138        C  0.39924888  0.21753516  0.85274672    -0.02900
Br139      Br  0.46599674  0.19697887  0.83884183    -0.01400
Br140      Br  0.38141735  0.18772830  0.75614686    -0.01500
Br141      Br  0.32572722  0.28627420  0.96708060    -0.01400
Br142      Br  0.23538620  0.26264065  0.89254703    -0.01400
C143        C  0.64140969  0.27506070  0.10136668    -0.02600
C144        C  0.59867953  0.24770000  0.10823722     0.07100
C145        C  0.59241091  0.22225541  0.15097492    -0.02700
C146        C  0.62802448  0.22513766  0.18737138    -0.02700
C147        C  0.67302721  0.25000091  0.17965346     0.07300
C148        C  0.67924490  0.27480435  0.13566134    -0.02900
Br149      Br  0.73972019  0.30724906  0.11875337    -0.01400
Br150      Br  0.64905695  0.31190348  0.04352412    -0.01500
Br151      Br  0.61113350  0.19794817  0.24859220    -0.01400
Br152      Br  0.53353396  0.18479394  0.16062502    -0.01400
C153        C  0.63737048  0.78058416  0.81026131    -0.02600
C154        C  0.68518770  0.76141506  0.81906745     0.07100
C155        C  0.69687977  0.74613075  0.86592162    -0.02700
C156        C  0.66100003  0.74816931  0.90230819    -0.02700
C157        C  0.61376952  0.76691432  0.89310847     0.07300
C158        C  0.60276463  0.78505530  0.84764558    -0.02900
Br159      Br  0.53978396  0.81569887  0.83621661    -0.01400
Br160      Br  0.61621443  0.79726773  0.74664435    -0.01500
Br161      Br  0.67735532  0.72799081  0.96615780    -0.01400
Br162      Br  0.76234947  0.72419880  0.88256669    -0.01400
C163        C  0.38856323  0.70643026  0.12577450    -0.02600
C164        C  0.39456327  0.74883410  0.09822763     0.07100
C165        C  0.36450206  0.78946110  0.10971562    -0.02700
C166        C  0.33137772  0.78807855  0.14852108    -0.02700
C167        C  0.32811851  0.74691057  0.17696213     0.07300
C168        C  0.35707157  0.70645853  0.16584635    -0.02900
Br169      Br  0.35601832  0.65184699  0.20802836    -0.01400
Br170      Br  0.42113100  0.64649351  0.10994449    -0.01500
Br171      Br  0.28867919  0.84243540  0.16175711    -0.01400
Br172      Br  0.36487529  0.84735812  0.07195564    -0.01400
C173        C  0.63573872  0.27548884  0.82396783    -0.02600
C174        C  0.67908673  0.24837256  0.83029070     0.07100
C175        C  0.68596893  0.22222844  0.87250872    -0.02700
C176        C  0.64898922  0.22230352  0.90796932    -0.02700
C177        C  0.60471098  0.24840178  0.90116044     0.07300
C178        C  0.59860156  0.27557805  0.85919437    -0.02900
Br179      Br  0.53873367  0.31165013  0.84856456    -0.01400
Br180      Br  0.62755049  0.31253399  0.76663283    -0.01500
Br181      Br  0.66047358  0.18876181  0.96695677    -0.01400
Br182      Br  0.74638419  0.18663791  0.88166327    -0.01400
C183        C  0.15360017  0.39572078  0.76723022    -0.02600
C184        C  0.10421444  0.38797310  0.75476530     0.07100
C185        C  0.08895178  0.34213990  0.74025263    -0.02700
C186        C  0.12289932  0.30372672  0.73886318    -0.02700
C187        C  0.17297450  0.31136850  0.75089096     0.07300
C188        C  0.18819085  0.35802700  0.76409626    -0.02900
Br189      Br  0.25698372  0.37227258  0.77419023    -0.01400
Br190      Br  0.17395731  0.45864884  0.78754093    -0.01500
Br191      Br  0.09911914  0.24076332  0.72222629    -0.01400
Br192      Br  0.02077131  0.33180625  0.72371401    -0.01400
C193        C  0.91581759  0.65525476  0.73983425    -0.02600
C194        C  0.90065196  0.60797534  0.74836505     0.07100
C195        C  0.85016960  0.59789435  0.75304736    -0.02700
C196        C  0.81485498  0.63488708  0.74914390    -0.02700
C197        C  0.82996507  0.68290760  0.74346232     0.07300
C198        C  0.88084210  0.69283583  0.73843132    -0.02900
Br199      Br  0.90376175  0.75774895  0.73156293    -0.01400
Br200      Br  0.98478114  0.66838894  0.72990582    -0.01500
Br201      Br  0.74580988  0.61859428  0.74749425    -0.01400
Br202      Br  0.82944659  0.53304450  0.76434506    -0.01400
C203        C  0.85823459  0.39347596  0.72115866    -0.02600
C204        C  0.89552719  0.39518617  0.75632955     0.07100
C205        C  0.89745597  0.35882553  0.79144354    -0.02700
C206        C  0.86236675  0.32183799  0.79142246    -0.02700
C207        C  0.82479914  0.32112756  0.75703153     0.07300
C208        C  0.82291349  0.35682285  0.72189045    -0.02900
Br209      Br  0.77063732  0.35623331  0.67537480    -0.01400
Br210      Br  0.85364300  0.44171234  0.67217508    -0.01500
Br211      Br  0.86727866  0.27027336  0.83681276    -0.01400
Br212      Br  0.94969735  0.35694407  0.83812606    -0.01400
C213        C  0.38143342  0.72857973  0.80411752    -0.02600
C214        C  0.33275561  0.74444923  0.81253200     0.07100
C215        C  0.31881305  0.76020901  0.85845547    -0.02700
C216        C  0.35348564  0.76080363  0.89557103    -0.02700
C217        C  0.40227492  0.74532122  0.88715609     0.07300
C218        C  0.41571170  0.72748021  0.84174647    -0.02900
Br219      Br  0.48057537  0.70068901  0.83110234    -0.01400
Br220      Br  0.40112731  0.70882165  0.74088164    -0.01500
Br221      Br  0.33330053  0.77986513  0.95891872    -0.01400
Br222      Br  0.25264627  0.78285948  0.87030945    -0.01400
C223        C  0.18711747  0.63399338  0.71065698    -0.02600
C224        C  0.18527564  0.67328444  0.74218029     0.07100
C225        C  0.14815888  0.67581862  0.77723795    -0.02700
C226        C  0.11332182  0.63894474  0.78146057    -0.02700
C227        C  0.11417486  0.59984098  0.74908626     0.07300
C228        C  0.15189535  0.59731613  0.71407221    -0.02900
Br229      Br  0.15846959  0.54191697  0.67293568    -0.01400
Br230      Br  0.23893243  0.62975765  0.66352345    -0.01500
Br231      Br  0.06449674  0.64353350  0.83169147    -0.01400
Br232      Br  0.14365438  0.73132659  0.81814800    -0.01400
C233        C  0.73959448  0.09692223  0.34927720    -0.02600
C234        C  0.75165258  0.11016764  0.39619323     0.07100
C235        C  0.76558442  0.15742483  0.40635008    -0.02700
C236        C  0.76495017  0.19224209  0.37022753    -0.02700
C237        C  0.75335167  0.17914431  0.32257717     0.07300
C238        C  0.74244098  0.13067302  0.31223870    -0.02900
Br239      Br  0.73570333  0.10864279  0.24723803    -0.01400
Br240      Br  0.71979258  0.03206775  0.33572439    -0.01500
Br241      Br  0.77753407  0.25793867  0.38821018    -0.01400
Br242      Br  0.78447800  0.17451368  0.47048855    -0.01400
C243        C  0.73933937  0.91400419  0.65072609    -0.02600
C244        C  0.75153208  0.90284301  0.60330336     0.07100
C245        C  0.76718942  0.85623831  0.59113180    -0.02700
C246        C  0.77075689  0.82058553  0.62635120    -0.02700
C247        C  0.75917441  0.83163850  0.67459568     0.07300
C248        C  0.74443201  0.87918131  0.68650619    -0.02900
Br249      Br  0.73490249  0.89909051  0.75200249    -0.01400
Br250      Br  0.71617163  0.97771872  0.66655166    -0.01500
Br251      Br  0.79003262  0.75667018  0.60657770    -0.01400
Br252      Br  0.78161965  0.84082061  0.52536046    -0.01400
C253        C  0.78472152  0.10906380  0.64557139    -0.02600
C254        C  0.75069015  0.11218018  0.60748763     0.07100
C255        C  0.71603983  0.15045102  0.60712949    -0.02700
C256        C  0.71485780  0.18419344  0.64472350    -0.02700
C257        C  0.74895101  0.18084815  0.68222802     0.07300
C258        C  0.78394383  0.14349183  0.68243645    -0.02900
Br259      Br  0.83006913  0.13904376  0.73451322    -0.01400
Br260      Br  0.83136681  0.05668012  0.64942516    -0.01500
Br261      Br  0.66725268  0.23590388  0.64450419    -0.01400
Br262      Br  0.67200765  0.15919882  0.55387914    -0.01400
C263        C  0.21989028  0.84969175  0.32526106    -0.02600
C264        C  0.25888870  0.81627593  0.32406778     0.07100
C265        C  0.29727783  0.81940765  0.35736787    -0.02700
C266        C  0.29694642  0.85612537  0.39195545    -0.02700
C267        C  0.25790343  0.89025547  0.39325707     0.07300
C268        C  0.21946322  0.88680235  0.35931229    -0.02900
Br269      Br  0.16692195  0.93390003  0.35670666    -0.01400
Br270      Br  0.16748124  0.84528775  0.27899556    -0.01500
Br271      Br  0.34924851  0.85704191  0.43852810    -0.01400
Br272      Br  0.34900397  0.77147217  0.35692712    -0.01400
C273        C  0.27309461  0.17307972  0.63897356    -0.02600
C274        C  0.24344627  0.16459317  0.67920350     0.07100
C275        C  0.21616731  0.12219980  0.68252722    -0.02700
C276        C  0.21721727  0.08875433  0.64487195    -0.02700
C277        C  0.24743713  0.09679304  0.60445927     0.07300
C278        C  0.27605851  0.13885146  0.60212598    -0.02900
Br279      Br  0.31869723  0.15083300  0.54827537    -0.01400
Br280      Br  0.30953166  0.23199677  0.63454085    -0.01500
Br281      Br  0.17865768  0.03114479  0.65037963    -0.01400
Br282      Br  0.17816467  0.10983459  0.73937786    -0.01400
C283        C  0.24705259  0.84281082  0.58610249    -0.02600
C284        C  0.26059480  0.88961533  0.59887594     0.07100
C285        C  0.27424852  0.89981442  0.64609094    -0.02700
C286        C  0.27225681  0.86380001  0.68105894    -0.02700
C287        C  0.26035182  0.81605340  0.66824644     0.07300
C288        C  0.24810879  0.80589497  0.62016228    -0.02900
Br289      Br  0.23476173  0.74151674  0.59907629    -0.01400
Br290      Br  0.22830102  0.82921803  0.52107668    -0.01500
Br291      Br  0.28131225  0.88201879  0.74697504    -0.01400
Br292      Br  0.29484159  0.96363482  0.66301640    -0.01400
C293        C  0.64593895  0.79847071  0.10299058    -0.02600
C294        C  0.60378262  0.76910977  0.10531523     0.07100
C295        C  0.59543623  0.74121862  0.14643137    -0.02700
C296        C  0.63012584  0.74063563  0.18353351    -0.02700
C297        C  0.67335644  0.76775549  0.17983295     0.07300
C298        C  0.68099077  0.79717134  0.13994008    -0.02900
Br299      Br  0.74051028  0.83429058  0.13545152    -0.01400
Br300      Br  0.65683963  0.83948144  0.04889787    -0.01500
Br301      Br  0.61852673  0.70294104  0.23990290    -0.01400
Br302      Br  0.53516726  0.70571450  0.15353533    -0.01400
C303        C  0.71468404  0.86585706  0.39945782    -0.02600
C304        C  0.74969215  0.90321660  0.39725686     0.07100
C305        C  0.78384429  0.90414740  0.35893900    -0.02700
C306        C  0.78287963  0.86825484  0.32357234    -0.02700
C307        C  0.74750223  0.83181668  0.32562287     0.07300
C308        C  0.71345040  0.83061424  0.36346227    -0.02900
Br309      Br  0.66569365  0.77978883  0.36626209    -0.01400
Br310      Br  0.66962249  0.86071009  0.45271276    -0.01500
Br311      Br  0.82927780  0.86937389  0.27124010    -0.01400
Br312      Br  0.83048826  0.95569502  0.35250510    -0.01400
C313        C  0.17640441  0.64439352  0.29141170    -0.02600
C314        C  0.18294275  0.67485870  0.25224660     0.07100
C315        C  0.15068402  0.67215529  0.21327959    -0.02700
C316        C  0.11259976  0.63814804  0.21267343    -0.02700
C317        C  0.10541507  0.60705051  0.25209781     0.07300
C318        C  0.13734475  0.61146311  0.29210121    -0.02900
Br319      Br  0.12976144  0.57327665  0.34900933    -0.01400
Br320      Br  0.22287332  0.64631917  0.34353640    -0.01500
Br321      Br  0.06967151  0.63752283  0.15786193    -0.01400
Br322      Br  0.15694346  0.71743161  0.16166006    -0.01400
C323        C  0.80443758  0.37448176  0.24364606    -0.02600
C324        C  0.81939204  0.32636961  0.25123430     0.07100
C325        C  0.86981216  0.31603896  0.25961090    -0.02700
C326        C  0.90410573  0.35338712  0.26230332    -0.02700
C327        C  0.88940060  0.40063029  0.25240877     0.07300
C328        C  0.83973348  0.41117118  0.24275127    -0.02900
Br329      Br  0.82007334  0.47643665  0.23001054    -0.01400
Br330      Br  0.73561795  0.39163367  0.23754126    -0.01500
Br331      Br  0.97148578  0.33988126  0.27989864    -0.01400
Br332      Br  0.89375217  0.25082308  0.26375993    -0.01400
C333        C  0.85268743  0.61578497  0.29000725    -0.02600
C334        C  0.88825100  0.61218900  0.25279597     0.07100
C335        C  0.88623726  0.64595362  0.21505729    -0.02700
C336        C  0.84951140  0.68190776  0.21450291    -0.02700
C337        C  0.81513244  0.68562297  0.25196784     0.07300
C338        C  0.81656713  0.65241462  0.28946908    -0.02900
Br339      Br  0.76686588  0.65582200  0.33894871    -0.01400
Br340      Br  0.85076698  0.56993761  0.34133047    -0.01500
Br341      Br  0.84724042  0.72749550  0.16286790    -0.01400
Br342      Br  0.93502101  0.64623058  0.16473497    -0.01400
C343        C  0.39176453  0.26413405  0.14838918    -0.02600
C344        C  0.38506485  0.23847753  0.10543580     0.07100
C345        C  0.34133496  0.21225994  0.09845506    -0.02700
C346        C  0.30408718  0.21293600  0.13361068    -0.02700
C347        C  0.31094651  0.23860922  0.17632300     0.07300
C348        C  0.35483849  0.26398538  0.18376115    -0.02900
Br349      Br  0.36400990  0.29872635  0.24259343    -0.01400
Br350      Br  0.45244476  0.29786050  0.15997179    -0.01500
Br351      Br  0.24295828  0.17978219  0.12295878    -0.01400
Br352      Br  0.33144702  0.17664577  0.04021896    -0.01400
C353        C  0.22410298  0.18075106  0.36823920    -0.02600
C354        C  0.23568707  0.16897299  0.32014398     0.07100
C355        C  0.24949980  0.12101481  0.30905284    -0.02700
C356        C  0.25454013  0.08670812  0.34549423    -0.02700
C357        C  0.24373750  0.09898833  0.39305289     0.07300
C358        C  0.22786063  0.14575037  0.40420732    -0.02900
Br359      Br  0.21259715  0.16202485  0.46956152    -0.01400
Br360      Br  0.20443674  0.24475206  0.38677277    -0.01500
Br361      Br  0.27537947  0.02212394  0.33031246    -0.01400
Br362      Br  0.25777494  0.10010440  0.24372933    -0.01400
C363        C  0.17347915  0.35553801  0.27807134    -0.02600
C364        C  0.16587424  0.31626282  0.24748309     0.07100
C365        C  0.12641563  0.31720822  0.21515710    -0.02700
C366        C  0.09343852  0.35650023  0.21453267    -0.02700
C367        C  0.09949842  0.39518777  0.24689689     0.07300
C368        C  0.14060928  0.39486329  0.27775257    -0.02900
Br369      Br  0.15521309  0.45005600  0.31647073    -0.01400
Br370      Br  0.23077789  0.35646428  0.31861684    -0.01500
Br371      Br  0.04002041  0.35604832  0.16916955    -0.01400
Br372      Br  0.11777247  0.26421183  0.17168614    -0.01400
loop_ 
_geom_bond_atom_site_label_1 
_geom_bond_atom_site_label_2 
_geom_bond_distance 
_geom_bond_site_symmetry_2 
_ccdc_geom_bond_type 
C1            N2   1.364       .  A
C1            N6   1.361       .  A
C1          C354   1.501       .  S
N2            C3   1.362       .  A
C3            N4   1.357       .  A
C3          C364   1.479       .  S
N4            C5   1.356       .  A
C5            N6   1.358       .  A
C5          C347   1.474       .  S
O7          Cu15   1.998   1_455  S
O7           C17   1.274       .  A
O8          Cu15   2.002       .  S
O8           C18   1.276       .  A
O9          Cu15   2.033   1_455  S
O9           C19   1.281       .  A
O10         Cu15   2.023       .  S
O10          C20   1.279       .  A
O11         Cu16   2.012       .  S
O11          C20   1.277       .  A
O12         Cu16   2.007   1_455  S
O12          C19   1.276       .  A
O13         Cu16   2.009       .  S
O13          C18   1.277       .  A
O14         Cu16   2.017   1_455  S
O14          C17   1.278       .  A
Cu15        Cu16   2.363       .  S
C17         C317   1.501       .  S
C18         C327   1.469       .  S
C19         C367   1.493       .  S
C20         C334   1.501       .  S
C21          N22   1.359       .  A
C21          N26   1.359       .  A
C21         C337   1.479       .  S
N22          C23   1.358       .  A
C23          N24   1.358       .  A
C23         C307   1.473       .  S
N24          C25   1.358       .  A
C25          N26   1.358       .  A
C25         C297   1.473       .  S
O27         Cu35   2.021       .  S
O27          C37   1.279       .  A
O28         Cu35   2.023   1_545  S
O28          C38   1.279       .  A
O29         Cu35   2.010   1_545  S
O29          C39   1.278       .  A
O30         Cu35   2.011       .  S
O30          C40   1.278       .  A
O31         Cu36   2.004       .  S
O31          C40   1.277       .  A
O32         Cu36   2.005   1_545  S
O32          C39   1.277       .  A
O33         Cu36   2.017   1_545  S
O33          C38   1.278       .  A
O34         Cu36   2.007       .  S
O34          C37   1.277       .  A
Cu35        Cu36   2.371       .  S
C37         C284   1.477       .  S
C38         C357   1.481       .  S
C39         C277   1.482       .  S
C40         C267   1.490       .  S
O41         Cu49   2.007   1_565  S
O41          C51   1.277       .  A
O42         Cu49   2.016       .  S
O42          C52   1.278       .  A
O43         Cu49   2.015       .  S
O43          C53   1.278       .  A
O44         Cu49   2.017   1_565  S
O44          C54   1.278       .  A
O45         Cu50   2.005   1_565  S
O45          C54   1.276       .  A
O46         Cu50   2.007       .  S
O46          C53   1.277       .  A
O47         Cu50   2.021       .  S
O47          C52   1.279       .  A
O48         Cu50   2.012   1_565  S
O48          C51   1.278       .  A
Cu49        Cu50   2.372       .  S
C51         C304   1.487       .  S
C52         C254   1.493       .  S
C53         C234   1.474       .  S
C54         C244   1.474       .  S
C55          N56   1.357       .  A
C55          N60   1.360       .  A
C55         C224   1.478       .  S
N56          C57   1.357       .  A
C57          N58   1.358       .  A
C57         C214   1.478       .  S
N58          C59   1.362       .  A
C59          N60   1.363       .  A
C59         C287   1.496       .  S
O61         Cu69   2.013   1_655  S
O61          C71   1.278       .  A
O62         Cu69   2.012       .  S
O62          C72   1.278       .  A
O63         Cu69   2.024   1_655  S
O63          C73   1.279       .  A
O64         Cu69   2.018       .  S
O64          C74   1.278       .  A
O65         Cu70   2.002       .  S
O65          C74   1.276       .  A
O66         Cu70   2.010   1_655  S
O66          C73   1.277       .  A
O67         Cu70   2.011       .  S
O67          C72   1.278       .  A
O68         Cu70   2.007   1_655  S
O68          C71   1.278       .  A
Cu69        Cu70   2.370       .  S
C71         C204   1.490       .  S
C72         C227   1.490       .  S
C73         C194   1.478       .  S
C74         C184   1.473       .  S
C75          N76   1.358       .  A
C75          N80   1.358       .  A
C75         C207   1.477       .  S
N76          C77   1.358       .  A
C77          N78   1.360       .  A
C77         C174   1.476       .  S
N78          C79   1.360       .  A
C79          N80   1.358       .  A
C79         C257   1.478       .  S
O81         Cu89   2.013   1_554  S
O81          C91   1.276       .  A
O82         Cu89   2.007       .  S
O82          C92   1.278       .  A
O83         Cu89   2.012   1_554  S
O83          C93   1.278       .  A
O84         Cu89   2.009       .  S
O84          C94   1.276       .  A
O85         Cu90   2.019       .  S
O85          C94   1.279       .  A
O86         Cu90   2.016   1_554  S
O86          C93   1.278       .  A
O87         Cu90   2.012       .  S
O87          C92   1.277       .  A
O88         Cu90   2.007   1_554  S
O88          C91   1.276       .  A
Cu89        Cu90   2.366       .  S
C91         C164   1.507       .  S
C92         C157   1.478       .  S
C93         C294   1.484       .  S
C94         C217   1.479       .  S
O95        Cu103   2.010       .  S
O95         C105   1.278       .  A
O96        Cu103   2.014   1_556  S
O96         C106   1.278       .  A
O97        Cu103   2.010       .  S
O97         C107   1.278       .  A
O98        Cu103   2.017   1_556  S
O98         C108   1.279       .  A
O99        Cu104   2.015   1_556  S
O99         C108   1.278       .  A
O100       Cu104   2.016       .  S
O100        C107   1.278       .  A
O101       Cu104   2.010   1_556  S
O101        C106   1.278       .  A
O102       Cu104   2.011       .  S
O102        C105   1.278       .  A
Cu103      Cu104   2.373       .  S
C105        C144   1.482       .  S
C106        C137   1.478       .  S
C107        C344   1.481       .  S
C108        C177   1.485       .  S
C109        N110   1.362       .  A
C109        N114   1.357       .  A
C109        C247   1.494       .  S
N110        C111   1.358       .  A
C111        N112   1.359       .  A
C111        C197   1.491       .  S
N112        C113   1.360       .  A
C113        N114   1.355       .  A
C113        C154   1.496       .  S
C115        N116   1.355       .  A
C115        N120   1.355       .  A
C115        C324   1.485       .  S
N116        C117   1.355       .  A
C117        N118   1.362       .  A
C117        C237   1.493       .  S
N118        C119   1.362       .  A
C119        N120   1.357       .  A
C119        C147   1.507       .  S
C121        N122   1.357       .  A
C121        N126   1.357       .  A
C121        C274   1.470       .  S
N122        C123   1.358       .  A
C123        N124   1.358       .  A
C123        C187   1.490       .  S
N124        C125   1.358       .  A
C125        N126   1.358       .  A
C125        C134   1.496       .  S
C127        N128   1.359       .  A
C127        N132   1.358       .  A
C127        C167   1.479       .  S
N128        C129   1.358       .  A
C129        N130   1.357       .  A
C129        C264   1.472       .  S
N130        C131   1.357       .  A
C131        N132   1.358       .  A
C131        C314   1.476       .  S
C133        C134   1.423       .  A
C133        C138   1.411       .  A
C133       Br140   1.935       .  S
C134        C135   1.420       .  A
C135        C136   1.408       .  A
C135       Br142   1.936       .  S
C136        C137   1.407       .  A
C136       Br141   1.932       .  S
C137        C138   1.407       .  A
C138       Br139   1.934       .  S
C143        C144   1.407       .  A
C143        C148   1.410       .  A
C143       Br150   1.938       .  S
C144        C145   1.408       .  A
C145        C146   1.412       .  A
C145       Br152   1.935       .  S
C146        C147   1.426       .  A
C146       Br151   1.937       .  S
C147        C148   1.429       .  A
C148       Br149   1.939       .  S
C153        C154   1.423       .  A
C153        C158   1.410       .  A
C153       Br160   1.936       .  S
C154        C155   1.421       .  A
C155        C156   1.409       .  A
C155       Br162   1.935       .  S
C156        C157   1.406       .  A
C156       Br161   1.934       .  S
C157        C158   1.408       .  A
C158       Br159   1.934       .  S
C163        C164   1.428       .  A
C163        C168   1.410       .  A
C163       Br170   1.937       .  S
C164        C165   1.428       .  A
C165        C166   1.410       .  A
C165       Br172   1.938       .  S
C166        C167   1.406       .  A
C166       Br171   1.937       .  S
C167        C168   1.405       .  A
C168       Br169   1.936       .  S
C173        C174   1.407       .  A
C173        C178   1.409       .  A
C173       Br180   1.930       .  S
C174        C175   1.407       .  A
C175        C176   1.411       .  A
C175       Br182   1.930       .  S
C176        C177   1.415       .  A
C176       Br181   1.932       .  S
C177        C178   1.414       .  A
C178       Br179   1.930       .  S
C183        C184   1.404       .  A
C183        C188   1.408       .  A
C183       Br190   1.931       .  S
C184        C185   1.408       .  A
C185        C186   1.409       .  A
C185       Br192   1.933       .  S
C186        C187   1.419       .  A
C186       Br191   1.934       .  S
C187        C188   1.418       .  A
C188       Br189   1.933       .  S
C193        C194   1.408       .  A
C193        C198   1.411       .  A
C193       Br200   1.929       .  S
C194        C195   1.406       .  A
C195        C196   1.409       .  A
C195       Br202   1.928       .  S
C196        C197   1.415       .  A
C196       Br201   1.932       .  S
C197        C198   1.417       .  A
C198       Br199   1.932       .  S
C203        C204   1.418       .  A
C203        C208   1.408       .  A
C203       Br210   1.934       .  S
C204        C205   1.420       .  A
C205        C206   1.410       .  A
C205       Br212   1.935       .  S
C206        C207   1.407       .  A
C206       Br211   1.932       .  S
C207        C208   1.407       .  A
C208       Br209   1.932       .  S
C213        C214   1.409       .  A
C213        C218   1.411       .  A
C213       Br220   1.929       .  S
C214        C215   1.410       .  A
C215        C216   1.407       .  A
C215       Br222   1.926       .  S
C216        C217   1.408       .  A
C216       Br221   1.930       .  S
C217        C218   1.412       .  A
C218       Br219   1.929       .  S
C223        C224   1.407       .  A
C223        C228   1.410       .  A
C223       Br230   1.929       .  S
C224        C225   1.406       .  A
C225        C226   1.408       .  A
C225       Br232   1.928       .  S
C226        C227   1.418       .  A
C226       Br231   1.934       .  S
C227        C228   1.417       .  A
C228       Br229   1.934       .  S
C233        C234   1.407       .  A
C233        C238   1.409       .  A
C233       Br240   1.930       .  S
C234        C235   1.404       .  A
C235        C236   1.409       .  A
C235       Br242   1.933       .  S
C236        C237   1.422       .  A
C236       Br241   1.935       .  S
C237        C238   1.417       .  A
C238       Br239   1.933       .  S
C243        C244   1.404       .  A
C243        C248   1.408       .  A
C243       Br250   1.933       .  S
C244        C245   1.407       .  A
C245        C246   1.410       .  A
C245       Br252   1.932       .  S
C246        C247   1.421       .  A
C246       Br251   1.935       .  S
C247        C248   1.422       .  A
C248       Br249   1.934       .  S
C253        C254   1.418       .  A
C253        C258   1.410       .  A
C253       Br260   1.932       .  S
C254        C255   1.419       .  A
C255        C256   1.412       .  A
C255       Br262   1.933       .  S
C256        C257   1.407       .  A
C256       Br261   1.931       .  S
C257        C258   1.406       .  A
C258       Br259   1.932       .  S
C263        C264   1.406       .  A
C263        C268   1.407       .  A
C263       Br270   1.934       .  S
C264        C265   1.405       .  A
C265        C266   1.409       .  A
C265       Br272   1.933       .  S
C266        C267   1.420       .  A
C266       Br271   1.934       .  S
C267        C268   1.419       .  A
C268       Br269   1.935       .  S
C273        C274   1.406       .  A
C273        C278   1.407       .  A
C273       Br280   1.931       .  S
C274        C275   1.405       .  A
C275        C276   1.408       .  A
C275       Br282   1.931       .  S
C276        C277   1.417       .  A
C276       Br281   1.933       .  S
C277        C278   1.415       .  A
C278       Br279   1.932       .  S
C283        C284   1.406       .  A
C283        C288   1.410       .  A
C283       Br290   1.934       .  S
C284        C285   1.406       .  A
C285        C286   1.410       .  A
C285       Br292   1.930       .  S
C286        C287   1.420       .  A
C286       Br291   1.934       .  S
C287        C288   1.419       .  A
C288       Br289   1.928       .  S
C293        C294   1.414       .  A
C293        C298   1.411       .  A
C293       Br300   1.930       .  S
C294        C295   1.414       .  A
C295        C296   1.407       .  A
C295       Br302   1.929       .  S
C296        C297   1.405       .  A
C296       Br301   1.931       .  S
C297        C298   1.408       .  A
C298       Br299   1.930       .  S
C303        C304   1.418       .  A
C303        C308   1.408       .  A
C303       Br310   1.934       .  S
C304        C305   1.417       .  A
C305        C306   1.408       .  A
C305       Br312   1.933       .  S
C306        C307   1.406       .  A
C306       Br311   1.931       .  S
C307        C308   1.406       .  A
C308       Br309   1.931       .  S
C313        C314   1.405       .  A
C313        C318   1.409       .  A
C313       Br320   1.936       .  S
C314        C315   1.406       .  A
C315        C316   1.409       .  A
C315       Br322   1.936       .  S
C316        C317   1.424       .  A
C316       Br321   1.934       .  S
C317        C318   1.427       .  A
C318       Br319   1.936       .  S
C323        C324   1.419       .  A
C323        C328   1.408       .  A
C323       Br330   1.933       .  S
C324        C325   1.417       .  A
C325        C326   1.405       .  A
C325       Br332   1.934       .  S
C326        C327   1.405       .  A
C326       Br331   1.931       .  S
C327        C328   1.405       .  A
C328       Br329   1.932       .  S
C333        C334   1.422       .  A
C333        C338   1.412       .  A
C333       Br340   1.933       .  S
C334        C335   1.423       .  A
C335        C336   1.410       .  A
C335       Br342   1.932       .  S
C336        C337   1.406       .  A
C336       Br341   1.935       .  S
C337        C338   1.407       .  A
C338       Br339   1.934       .  S
C343        C344   1.413       .  A
C343        C348   1.408       .  A
C343       Br350   1.931       .  S
C344        C345   1.413       .  A
C345        C346   1.410       .  A
C345       Br352   1.931       .  S
C346        C347   1.408       .  A
C346       Br351   1.929       .  S
C347        C348   1.406       .  A
C348       Br349   1.930       .  S
C353        C354   1.422       .  A
C353        C358   1.412       .  A
C353       Br360   1.931       .  S
C354        C355   1.421       .  A
C355        C356   1.412       .  A
C355       Br362   1.934       .  S
C356        C357   1.406       .  A
C356       Br361   1.932       .  S
C357        C358   1.406       .  A
C358       Br359   1.931       .  S
C363        C364   1.407       .  A
C363        C368   1.410       .  A
C363       Br370   1.931       .  S
C364        C365   1.407       .  A
C365        C366   1.411       .  A
C365       Br372   1.931       .  S
C366        C367   1.420       .  A
C366       Br371   1.933       .  S
C367        C368   1.415       .  A
C368       Br369   1.927       .  S
