geometry optimzed in LAMMPS
_audit_creation_date              2020-11-30 
_audit_creation_method            'lammps2cif' 
_symmetry_space_group_name_H-M    'P1' 
_symmetry_Int_Tables_number       1 
_symmetry_cell_setting            triclinic 
loop_ 
_symmetry_equiv_pos_as_xyz 
  x,y,z 
_cell_length_a                    21.570744801188564 
_cell_length_b                    21.57925054168839 
_cell_length_c                    30.201104914109287 
_cell_angle_alpha                 90.12075070833355 
_cell_angle_beta                  89.88233635744038 
_cell_angle_gamma                 120.10838362545027 
loop_ 
_atom_site_label 
_atom_site_type_symbol 
_atom_site_fract_x 
_atom_site_fract_y 
_atom_site_fract_z 
_atom_site_charge 
O1          O  0.05935322  0.11793122  0.70502659    -0.51830
C2          C  0.40258077  0.50526972  0.60490007     0.80800
O3          O  0.05955882  0.44184328  0.62868582    -0.52990
C4          C  0.09861970  0.10310956  0.72875504     0.80770
C5          C  0.40252743  0.39757185  0.72872328     0.83160
Cd6        Cd  0.00049956  0.00042536  0.66671250     1.37470
O7          O  0.44201657  0.05935843  0.62876756    -0.51830
O8          O  0.40833006  0.45836519  0.72371276    -0.50640
C9          C  0.09861619  0.99579796  0.60466962     0.83120
O10         O  0.44119281  0.38255000  0.70439172    -0.53010
O11         O  0.40759666  0.44991563  0.61028753    -0.51460
O12         O  0.09332595  0.04261758  0.72312960    -0.51450
O13         O  0.09302779  0.05087845  0.60994600    -0.50630
C14         C  0.21987233  0.00082530  0.50007442     0.06550
C15         C  0.28247124  0.00075597  0.50014070     0.06550
O16         O  0.11932081  0.05974446  0.37154016    -0.51830
C17         C  0.50659069  0.10353806  0.27168783     0.80800
O18         O  0.44303474  0.38284365  0.29572869    -0.52990
C19         C  0.10441533  0.50568964  0.39537394     0.80770
C20         C  0.39879828  0.99598870  0.39552280     0.83160
Cd21       Cd  0.00168139  0.00079708  0.33351664     1.37470
O22         O  0.06066196  0.11841431  0.29552272    -0.51830
O23         O  0.45973909  0.05102839  0.39046502    -0.50640
C24         C  0.99690743  0.39793750  0.27152831     0.83120
O25         O  0.38368239  0.44215733  0.37129600    -0.53010
O26         O  0.45125952  0.04293149  0.27708286    -0.51460
O27         O  0.04378959  0.45038176  0.38995936    -0.51450
O28         O  0.05196822  0.45885383  0.27659621    -0.50630
C29         C  0.00171852  0.28160672  0.16694675     0.06490
C30         C  0.00177345  0.21902269  0.16701697     0.06550
O31         O  0.06033889  0.44116246  0.03835594    -0.51830
C32         C  0.10402647  0.09772717  0.93837768     0.80800
O33         O  0.38341395  0.44027651  0.96276070    -0.52990
C34         C  0.50623717  0.40172601  0.06222201     0.80770
C35         C  0.99673040  0.09773214  0.06245884     0.83160
Cd36       Cd  0.00135493  0.49962110  0.00042902     1.37470
O37         O  0.11889684  0.05850675  0.96210471    -0.51830
O38         O  0.05183590  0.09215087  0.05718470    -0.50640
C39         C  0.39847106  0.40166458  0.93841201     0.83120
O40         O  0.44274314  0.05865598  0.03845575    -0.53010
O41         O  0.04349188  0.09238962  0.94400585    -0.51460
O42         O  0.45085951  0.40674316  0.05685030    -0.51450
O43         O  0.45931354  0.40751649  0.94340633    -0.50630
C44         C  0.21953707  0.21865028  0.83356845     0.06550
C45         C  0.28225538  0.28138114  0.83356890     0.06550
C46         C  0.18582103  0.18128684  0.87412338    -0.07290
C47         C  0.15217044  0.14490228  0.90521607    -0.08850
C48         C  0.35016475  0.35461496  0.90526585    -0.07290
C49         C  0.31629570  0.31843218  0.87415422    -0.08850
C50         C  0.00496159  0.31852519  0.12634108    -0.07290
C51         C  0.50741860  0.35469477  0.09527409    -0.08850
C52         C  0.99835814  0.18160016  0.12650319    -0.07290
C53         C  0.99573574  0.14506326  0.09550457    -0.08850
C54         C  0.00518759  0.18544191  0.20760974    -0.07290
C55         C  0.50774120  0.15176155  0.23865486    -0.08850
C56         C  0.99838432  0.31563678  0.20747319    -0.07290
C57         C  0.99582931  0.34956346  0.23848661    -0.08850
C58         C  0.18628849  0.50426090  0.45948365    -0.07290
C59         C  0.15262497  0.50683076  0.42842699    -0.08850
C60         C  0.31650653  0.99743037  0.45961101    -0.07290
C61         C  0.35042479  0.99488816  0.42858335    -0.08850
C62         C  0.14592894  0.99479324  0.57160486    -0.07290
C63         C  0.18244760  0.99741026  0.54059120    -0.08850
C64         C  0.31939885  0.50398706  0.54074612    -0.07290
C65         C  0.35555724  0.50644216  0.57182720    -0.08850
C66         C  0.35547697  0.34928190  0.76187031    -0.07290
C67         C  0.31929873  0.31542044  0.79298336    -0.08850
C68         C  0.14579387  0.15125982  0.76191702    -0.07290
C69         C  0.18217488  0.18491991  0.79301209    -0.08850
O70         O  0.05935321  0.61793122  0.70502659    -0.51830
C71         C  0.40258078  0.00526971  0.60490008     0.80800
O72         O  0.05955882  0.94184326  0.62868582    -0.52990
C73         C  0.09861971  0.60310957  0.72875504     0.80770
C74         C  0.40252744  0.89757186  0.72872328     0.83160
Cd75       Cd  0.00049956  0.50042537  0.66671250     1.37470
O76         O  0.44201654  0.55935843  0.62876757    -0.51830
O77         O  0.40833006  0.95836520  0.72371275    -0.50640
C78         C  0.09861619  0.49579798  0.60466962     0.83120
O79         O  0.44119282  0.88255000  0.70439174    -0.53010
O80         O  0.40759665  0.94991561  0.61028755    -0.51460
O81         O  0.09332596  0.54261760  0.72312959    -0.51450
O82         O  0.09302780  0.55087847  0.60994601    -0.50630
C83         C  0.21987232  0.50082530  0.50007441     0.06550
C84         C  0.28247123  0.50075597  0.50014070     0.06550
O85         O  0.11932079  0.55974444  0.37154015    -0.51830
C86         C  0.50659069  0.60353806  0.27168783     0.80800
O87         O  0.44303475  0.88284367  0.29572869    -0.52990
C88         C  0.10441535  0.00568966  0.39537394     0.80770
C89         C  0.39879827  0.49598869  0.39552280     0.83160
Cd90       Cd  0.00168137  0.50079707  0.33351664     1.37470
O91         O  0.06066196  0.61841431  0.29552273    -0.51830
O92         O  0.45973909  0.55102837  0.39046503    -0.50640
C93         C  0.99690746  0.89793752  0.27152831     0.83120
O94         O  0.38368241  0.94215734  0.37129601    -0.53010
O95         O  0.45125951  0.54293149  0.27708286    -0.51460
O96         O  0.04378961  0.95038177  0.38995936    -0.51450
O97         O  0.05196823  0.95885386  0.27659620    -0.50630
C98         C  0.00171854  0.78160673  0.16694675     0.06490
C99         C  0.00177348  0.71902270  0.16701697     0.06550
O100        O  0.06033887  0.94116244  0.03835592    -0.51830
C101        C  0.10402648  0.59772717  0.93837768     0.80800
O102        O  0.38341396  0.94027652  0.96276071    -0.52990
C103        C  0.50623718  0.90172601  0.06222201     0.80770
C104        C  0.99673041  0.59773214  0.06245885     0.83160
Cd105      Cd  0.00135491  0.99962110  0.00042902     1.37470
O106        O  0.11889685  0.55850675  0.96210470    -0.51830
O107        O  0.05183592  0.59215087  0.05718470    -0.50640
C108        C  0.39847106  0.90166458  0.93841201     0.83120
O109        O  0.44274314  0.55865598  0.03845575    -0.53010
O110        O  0.04349189  0.59238962  0.94400585    -0.51460
O111        O  0.45085953  0.90674318  0.05685031    -0.51450
O112        O  0.45931353  0.90751648  0.94340633    -0.50630
C113        C  0.21953707  0.71865029  0.83356845     0.06550
C114        C  0.28225537  0.78138115  0.83356890     0.06550
C115        C  0.18582104  0.68128685  0.87412338    -0.07290
C116        C  0.15217044  0.64490228  0.90521607    -0.08850
C117        C  0.35016474  0.85461497  0.90526585    -0.07290
C118        C  0.31629570  0.81843219  0.87415422    -0.08850
C119        C  0.00496160  0.81852520  0.12634108    -0.07290
C120        C  0.50741861  0.85469477  0.09527409    -0.08850
C121        C  0.99835816  0.68160017  0.12650319    -0.07290
C122        C  0.99573575  0.64506327  0.09550457    -0.08850
C123        C  0.00518762  0.68544192  0.20760974    -0.07290
C124        C  0.50774121  0.65176155  0.23865486    -0.08850
C125        C  0.99838435  0.81563679  0.20747318    -0.07290
C126        C  0.99582934  0.84956347  0.23848661    -0.08850
C127        C  0.18628851  0.00426091  0.45948366    -0.07290
C128        C  0.15262498  0.00683078  0.42842699    -0.08850
C129        C  0.31650651  0.49743036  0.45961100    -0.07290
C130        C  0.35042478  0.49488815  0.42858335    -0.08850
C131        C  0.14592894  0.49479326  0.57160485    -0.07290
C132        C  0.18244759  0.49741027  0.54059120    -0.08850
C133        C  0.31939885  0.00398705  0.54074612    -0.07290
C134        C  0.35555725  0.00644215  0.57182720    -0.08850
C135        C  0.35547697  0.84928192  0.76187031    -0.07290
C136        C  0.31929872  0.81542046  0.79298336    -0.08850
C137        C  0.14579387  0.65125983  0.76191702    -0.07290
C138        C  0.18217488  0.68491992  0.79301209    -0.08850
O139        O  0.55935323  0.11793122  0.70502659    -0.51830
C140        C  0.90258078  0.50526972  0.60490008     0.80800
O141        O  0.55955882  0.44184328  0.62868582    -0.52990
C142        C  0.59861971  0.10310956  0.72875504     0.80770
C143        C  0.90252745  0.39757185  0.72872328     0.83160
Cd144      Cd  0.50049956  0.00042536  0.66671250     1.37470
O145        O  0.94201657  0.05935842  0.62876756    -0.51830
O146        O  0.90833007  0.45836519  0.72371276    -0.50640
C147        C  0.59861619  0.99579796  0.60466962     0.83120
O148        O  0.94119282  0.38255000  0.70439172    -0.53010
O149        O  0.90759665  0.44991562  0.61028755    -0.51460
O150        O  0.59332595  0.04261758  0.72312960    -0.51450
O151        O  0.59302781  0.05087846  0.60994601    -0.50630
C152        C  0.71987233  0.00082529  0.50007442     0.06550
C153        C  0.78247123  0.00075596  0.50014070     0.06550
O154        O  0.61932081  0.05974445  0.37154016    -0.51830
C155        C  0.00659068  0.10353806  0.27168783     0.80800
O156        O  0.94303471  0.38284367  0.29572867    -0.52990
C157        C  0.60441534  0.50568965  0.39537394     0.80770
C158        C  0.89879827  0.99598869  0.39552280     0.83160
Cd159      Cd  0.50168139  0.00079708  0.33351664     1.37470
O160        O  0.56066196  0.11841432  0.29552273    -0.51830
O161        O  0.95973908  0.05102839  0.39046502    -0.50640
C162        C  0.49690745  0.39793751  0.27152831     0.83120
O163        O  0.88368240  0.44215733  0.37129601    -0.53010
O164        O  0.95125950  0.04293149  0.27708287    -0.51460
O165        O  0.54378961  0.45038176  0.38995935    -0.51450
O166        O  0.55196822  0.45885386  0.27659619    -0.50630
C167        C  0.50171853  0.28160673  0.16694675     0.06490
C168        C  0.50177347  0.21902270  0.16701697     0.06550
O169        O  0.56033889  0.44116247  0.03835594    -0.51830
C170        C  0.60402649  0.09772717  0.93837768     0.80800
O171        O  0.88341396  0.44027651  0.96276070    -0.52990
C172        C  0.00623717  0.40172601  0.06222201     0.80770
C173        C  0.49673041  0.09773214  0.06245884     0.83160
Cd174      Cd  0.50135492  0.49962110  0.00042902     1.37470
O175        O  0.61889685  0.05850675  0.96210471    -0.51830
O176        O  0.55183592  0.09215087  0.05718470    -0.50640
C177        C  0.89847107  0.40166458  0.93841201     0.83120
O178        O  0.94274313  0.05865598  0.03845574    -0.53010
O179        O  0.54349189  0.09238962  0.94400585    -0.51460
O180        O  0.95085951  0.40674316  0.05685030    -0.51450
O181        O  0.95931354  0.40751649  0.94340633    -0.50630
C182        C  0.71953708  0.21865028  0.83356845     0.06550
C183        C  0.78225539  0.28138114  0.83356890     0.06550
C184        C  0.68582104  0.18128684  0.87412338    -0.07290
C185        C  0.65217045  0.14490228  0.90521607    -0.08850
C186        C  0.85016475  0.35461496  0.90526585    -0.07290
C187        C  0.81629571  0.31843218  0.87415422    -0.08850
C188        C  0.50496160  0.31852520  0.12634108    -0.07290
C189        C  0.00741860  0.35469476  0.09527409    -0.08850
C190        C  0.49835816  0.18160017  0.12650319    -0.07290
C191        C  0.49573575  0.14506327  0.09550457    -0.08850
C192        C  0.50518761  0.18544191  0.20760974    -0.07290
C193        C  0.00774119  0.15176154  0.23865486    -0.08850
C194        C  0.49838434  0.31563678  0.20747318    -0.07290
C195        C  0.49582933  0.34956346  0.23848661    -0.08850
C196        C  0.68628850  0.50426091  0.45948366    -0.07290
C197        C  0.65262498  0.50683077  0.42842699    -0.08850
C198        C  0.81650652  0.99743036  0.45961101    -0.07290
C199        C  0.85042479  0.99488816  0.42858335    -0.08850
C200        C  0.64592894  0.99479324  0.57160486    -0.07290
C201        C  0.68244759  0.99741025  0.54059120    -0.08850
C202        C  0.81939885  0.50398706  0.54074613    -0.07290
C203        C  0.85555725  0.50644216  0.57182720    -0.08850
C204        C  0.85547698  0.34928190  0.76187031    -0.07290
C205        C  0.81929874  0.31542044  0.79298336    -0.08850
C206        C  0.64579388  0.15125982  0.76191702    -0.07290
C207        C  0.68217489  0.18491991  0.79301209    -0.08850
O208        O  0.55935320  0.61793123  0.70502659    -0.51830
C209        C  0.90258077  0.00526971  0.60490008     0.80800
O210        O  0.55955881  0.94184326  0.62868582    -0.52990
C211        C  0.59861969  0.60310957  0.72875504     0.80770
C212        C  0.90252743  0.89757185  0.72872328     0.83160
Cd213      Cd  0.50049955  0.50042537  0.66671250     1.37470
O214        O  0.94201657  0.55935844  0.62876757    -0.51830
O215        O  0.90833006  0.95836520  0.72371276    -0.50640
C216        C  0.59861619  0.49579798  0.60466962     0.83120
O217        O  0.94119280  0.88255000  0.70439173    -0.53010
O218        O  0.90759664  0.94991561  0.61028755    -0.51460
O219        O  0.59332594  0.54261760  0.72312959    -0.51450
O220        O  0.59302780  0.55087847  0.60994601    -0.50630
C221        C  0.71987233  0.50082531  0.50007442     0.06550
C222        C  0.78247123  0.50075597  0.50014071     0.06550
O223        O  0.61932080  0.55974445  0.37154016    -0.51830
C224        C  0.00659069  0.60353806  0.27168783     0.80800
O225        O  0.94303475  0.88284367  0.29572869    -0.52990
C226        C  0.60441534  0.00568965  0.39537394     0.80770
C227        C  0.89879826  0.49598869  0.39552280     0.83160
Cd228      Cd  0.50168138  0.50079707  0.33351664     1.37470
O229        O  0.56066196  0.61841431  0.29552273    -0.51830
O230        O  0.95973908  0.55102838  0.39046502    -0.50640
C231        C  0.49690746  0.89793752  0.27152831     0.83120
O232        O  0.88368241  0.94215733  0.37129601    -0.53010
O233        O  0.95125951  0.54293149  0.27708286    -0.51460
O234        O  0.54378961  0.95038177  0.38995935    -0.51450
O235        O  0.55196823  0.95885386  0.27659620    -0.50630
C236        C  0.50171855  0.78160673  0.16694675     0.06490
C237        C  0.50177348  0.71902270  0.16701698     0.06550
O238        O  0.56033888  0.94116245  0.03835593    -0.51830
C239        C  0.60402647  0.59772717  0.93837768     0.80800
O240        O  0.88341394  0.94027652  0.96276070    -0.52990
C241        C  0.00623716  0.90172601  0.06222201     0.80770
C242        C  0.49673041  0.59773214  0.06245885     0.83160
Cd243      Cd  0.50135492  0.99962110  0.00042902     1.37470
O244        O  0.61889684  0.55850675  0.96210470    -0.51830
O245        O  0.55183591  0.59215087  0.05718470    -0.50640
C246        C  0.89847105  0.90166458  0.93841201     0.83120
O247        O  0.94274315  0.55865598  0.03845574    -0.53010
O248        O  0.54349188  0.59238963  0.94400585    -0.51460
O249        O  0.95085951  0.90674318  0.05685031    -0.51450
O250        O  0.95931351  0.90751648  0.94340633    -0.50630
C251        C  0.71953705  0.71865029  0.83356845     0.06550
C252        C  0.78225536  0.78138115  0.83356890     0.06550
C253        C  0.68582102  0.68128685  0.87412337    -0.07290
C254        C  0.65217043  0.64490229  0.90521607    -0.08850
C255        C  0.85016472  0.85461497  0.90526585    -0.07290
C256        C  0.81629568  0.81843219  0.87415422    -0.08850
C257        C  0.50496161  0.81852520  0.12634109    -0.07290
C258        C  0.00741860  0.85469477  0.09527409    -0.08850
C259        C  0.49835816  0.68160017  0.12650319    -0.07290
C260        C  0.49573575  0.64506326  0.09550458    -0.08850
C261        C  0.50518761  0.68544192  0.20760975    -0.07290
C262        C  0.00774121  0.65176155  0.23865486    -0.08850
C263        C  0.49838436  0.81563679  0.20747319    -0.07290
C264        C  0.49582934  0.84956347  0.23848661    -0.08850
C265        C  0.68628850  0.00426090  0.45948365    -0.07290
C266        C  0.65262498  0.00683076  0.42842699    -0.08850
C267        C  0.81650652  0.49743037  0.45961101    -0.07290
C268        C  0.85042478  0.49488816  0.42858335    -0.08850
C269        C  0.64592894  0.49479327  0.57160486    -0.07290
C270        C  0.68244760  0.49741028  0.54059120    -0.08850
C271        C  0.81939885  0.00398704  0.54074612    -0.07290
C272        C  0.85555724  0.00644214  0.57182720    -0.08850
C273        C  0.85547696  0.84928192  0.76187031    -0.07290
C274        C  0.81929871  0.81542046  0.79298336    -0.08850
C275        C  0.64579386  0.65125983  0.76191702    -0.07290
C276        C  0.68217486  0.68491993  0.79301209    -0.08850
loop_ 
_geom_bond_atom_site_label_1 
_geom_bond_atom_site_label_2 
_geom_bond_distance 
_geom_bond_site_symmetry_2 
_ccdc_geom_bond_type 
O1            C4   1.268       .  A
O1           Cd6   2.479       .  S
C2           O11   1.263       .  A
C2           O76   1.268       .  A
C2           C65   1.434       .  S
O3           C78   1.268       .  A
O3          Cd75   2.479       .  S
C4           O12   1.263       .  A
C4           C68   1.434       .  S
C5           O10   1.268       .  A
C5            O8   1.263       .  A
C5           C66   1.434       .  S
Cd6          O13   2.433       .  S
Cd6          O12   2.433       .  S
Cd6          O72   2.479   1_545  S
Cd6         O218   2.434   1_445  S
Cd6         O145   2.479   1_455  S
Cd6         O217   2.479   1_445  S
Cd6         O215   2.434   1_445  S
O7           C71   1.268       .  A
O7         Cd144   2.479       .  S
O8         Cd213   2.434       .  S
C9           O13   1.263   1_565  A
C9           O72   1.268       .  A
C9           C62   1.434       .  S
O10        Cd213   2.479       .  S
O11        Cd213   2.434       .  S
C14          C15   1.351       .  D
C14          C63   1.446   1_545  S
C14         C127   1.446       .  S
C15          C60   1.446   1_545  S
C15         C133   1.446       .  S
O16          C88   1.268       .  A
O16         Cd21   2.479       .  S
C17          O26   1.263       .  A
C17         O160   1.268       .  A
C17          C55   1.434       .  S
O18         C162   1.268       .  A
O18        Cd228   2.479       .  S
C19          O27   1.263       .  A
C19          O85   1.268       .  A
C19          C59   1.434       .  S
C20          O23   1.263   1_565  A
C20          O94   1.268       .  A
C20          C61   1.434       .  S
Cd21         O22   2.479       .  S
Cd21        O225   2.479   1_445  S
Cd21         O97   2.433   1_545  S
Cd21         O96   2.433   1_545  S
Cd21        O164   2.433   1_455  S
Cd21        O232   2.479   1_445  S
Cd21        O161   2.433   1_455  S
O22         C155   1.268       .  A
O23        Cd159   2.433       .  S
C24          O28   1.263   1_655  A
C24         O156   1.268       .  A
C24          C57   1.434       .  S
O25          C89   1.268       .  A
O25        Cd228   2.479       .  S
O26        Cd159   2.433       .  S
O27         Cd90   2.433       .  S
O28         Cd90   2.433       .  S
C29          C30   1.351       .  D
C29          C50   1.446       .  S
C29          C56   1.446   1_455  S
C30          C52   1.446   1_455  S
C30          C54   1.446       .  S
O31         C172   1.268       .  A
O31         Cd36   2.479       .  S
C32          O41   1.263       .  A
C32          O37   1.268       .  A
C32          C47   1.434       .  S
O33          C39   1.268       .  A
O33        Cd174   2.479   1_556  S
C34          O42   1.263       .  A
C34         O169   1.268       .  A
C34          C51   1.434       .  S
C35          O38   1.263   1_655  A
C35         O178   1.268       .  A
C35          C53   1.434       .  S
Cd36        O171   2.479   1_454  S
Cd36        O181   2.434   1_454  S
Cd36        O180   2.434   1_455  S
Cd36        O110   2.433   1_554  S
Cd36        O106   2.479   1_554  S
Cd36        O247   2.479   1_455  S
Cd36        O107   2.434       .  S
O37        Cd105   2.479   1_546  S
O38        Cd105   2.434   1_545  S
C39          O43   1.263       .  A
C39          C48   1.434       .  S
O40         C173   1.268       .  A
O40        Cd243   2.479   1_545  S
O41        Cd105   2.433   1_546  S
O42        Cd174   2.434       .  S
O43        Cd174   2.434   1_556  S
C44          C45   1.351       .  D
C44          C46   1.446       .  S
C44          C69   1.446       .  S
C45          C49   1.446       .  S
C45          C67   1.446       .  S
C46          C47   1.206       .  T
C48          C49   1.206       .  T
C50         C189   1.206       .  T
C51         C188   1.206       .  T
C52          C53   1.206       .  T
C54         C193   1.206       .  T
C55         C192   1.206       .  T
C56          C57   1.206       .  T
C58          C83   1.446       .  S
C58          C59   1.206       .  T
C60          C61   1.206       .  T
C62          C63   1.206       .  T
C64          C84   1.446       .  S
C64          C65   1.206       .  T
C66          C67   1.206       .  T
C68          C69   1.206       .  T
O70          C73   1.268       .  A
O70         Cd75   2.479       .  S
C71          O80   1.263   1_545  A
C71         C134   1.434       .  S
C73          O81   1.263       .  A
C73         C137   1.434       .  S
C74          O79   1.268       .  A
C74          O77   1.263       .  A
C74         C135   1.434       .  S
Cd75         O82   2.433       .  S
Cd75         O81   2.433       .  S
Cd75        O149   2.434   1_455  S
Cd75        O214   2.479   1_455  S
Cd75        O148   2.479   1_455  S
Cd75        O146   2.434   1_455  S
O76        Cd213   2.479       .  S
O77        Cd144   2.434   1_565  S
C78          O82   1.263       .  A
C78         C131   1.434       .  S
O79        Cd144   2.479   1_565  S
O80        Cd144   2.434   1_565  S
C83          C84   1.351       .  D
C83         C132   1.446       .  S
C84         C129   1.446       .  S
O85         Cd90   2.479       .  S
C86          O95   1.263       .  A
C86         O229   1.268       .  A
C86         C124   1.434       .  S
O87         C231   1.268       .  A
O87        Cd159   2.479   1_565  S
C88          O96   1.263   1_545  A
C88         C128   1.434       .  S
C89          O92   1.263       .  A
C89         C130   1.434       .  S
Cd90        O156   2.479   1_455  S
Cd90        O233   2.433   1_455  S
Cd90         O91   2.479       .  S
Cd90        O163   2.479   1_455  S
Cd90        O230   2.433   1_455  S
O91         C224   1.268       .  A
O92        Cd228   2.433       .  S
C93         O225   1.268       .  A
C93          O97   1.263   1_655  A
C93         C126   1.434       .  S
O94        Cd159   2.479   1_565  S
O95        Cd228   2.433       .  S
C98          C99   1.351       .  D
C98         C119   1.446       .  S
C98         C125   1.446   1_455  S
C99         C121   1.446   1_455  S
C99         C123   1.446       .  S
O100        C241   1.268       .  A
O100       Cd105   2.479       .  S
C101        O110   1.263       .  A
C101        O106   1.268       .  A
C101        C116   1.434       .  S
O102        C108   1.268       .  A
O102       Cd243   2.479   1_556  S
C103        O238   1.268       .  A
C103        O111   1.263       .  A
C103        C120   1.434       .  S
C104        O247   1.268       .  A
C104        O107   1.263   1_655  A
C104        C122   1.434       .  S
Cd105       O240   2.479   1_454  S
Cd105       O250   2.434   1_454  S
Cd105       O249   2.434   1_455  S
Cd105       O178   2.479   1_465  S
C108        O112   1.263       .  A
C108        C117   1.434       .  S
O109        C242   1.268       .  A
O109       Cd174   2.479       .  S
O111       Cd243   2.434       .  S
O112       Cd243   2.434   1_556  S
C113        C114   1.351       .  D
C113        C115   1.446       .  S
C113        C138   1.446       .  S
C114        C118   1.446       .  S
C114        C136   1.446       .  S
C115        C116   1.206       .  T
C117        C118   1.206       .  T
C119        C258   1.206       .  T
C120        C257   1.206       .  T
C121        C122   1.206       .  T
C123        C262   1.206       .  T
C124        C261   1.206       .  T
C125        C126   1.206       .  T
C127        C128   1.206       .  T
C129        C130   1.206       .  T
C131        C132   1.206       .  T
C133        C134   1.206       .  T
C135        C136   1.206       .  T
C137        C138   1.206       .  T
O139        C142   1.268       .  A
O139       Cd144   2.479       .  S
C140        O149   1.263       .  A
C140        O214   1.268       .  A
C140        C203   1.434       .  S
O141        C216   1.268       .  A
O141       Cd213   2.479       .  S
C142        O150   1.263       .  A
C142        C206   1.434       .  S
C143        O148   1.268       .  A
C143        O146   1.263       .  A
C143        C204   1.434       .  S
Cd144       O210   2.479   1_545  S
Cd144       O151   2.433       .  S
Cd144       O150   2.433       .  S
O145        C209   1.268       .  A
C147        O210   1.268       .  A
C147        O151   1.263   1_565  A
C147        C200   1.434       .  S
C152        C153   1.351       .  D
C152        C265   1.446       .  S
C152        C201   1.446   1_545  S
C153        C198   1.446   1_545  S
C153        C271   1.446       .  S
O154        C226   1.268       .  A
O154       Cd159   2.479       .  S
C155        O164   1.263   1_455  A
C155        C193   1.434       .  S
C157        O223   1.268       .  A
C157        O165   1.263       .  A
C157        C197   1.434       .  S
C158        O232   1.268       .  A
C158        O161   1.263   1_565  A
C158        C199   1.434       .  S
Cd159       O235   2.433   1_545  S
Cd159       O234   2.433   1_545  S
Cd159       O160   2.479       .  S
C162        O166   1.263       .  A
C162        C195   1.434       .  S
O163        C227   1.268       .  A
O165       Cd228   2.433       .  S
O166       Cd228   2.433       .  S
C167        C168   1.351       .  D
C167        C188   1.446       .  S
C167        C194   1.446       .  S
C168        C190   1.446       .  S
C168        C192   1.446       .  S
O169       Cd174   2.479       .  S
C170        O179   1.263       .  A
C170        O175   1.268       .  A
C170        C185   1.434       .  S
O171        C177   1.268       .  A
C172        O180   1.263   1_455  A
C172        C189   1.434       .  S
C173        O176   1.263       .  A
C173        C191   1.434       .  S
Cd174       O248   2.433   1_554  S
Cd174       O244   2.479   1_554  S
Cd174       O245   2.434       .  S
O175       Cd243   2.479   1_546  S
O176       Cd243   2.434   1_545  S
C177        O181   1.263       .  A
C177        C186   1.434       .  S
O179       Cd243   2.433   1_546  S
C182        C183   1.351       .  D
C182        C184   1.446       .  S
C182        C207   1.446       .  S
C183        C187   1.446       .  S
C183        C205   1.446       .  S
C184        C185   1.206       .  T
C186        C187   1.206       .  T
C190        C191   1.206       .  T
C194        C195   1.206       .  T
C196        C221   1.446       .  S
C196        C197   1.206       .  T
C198        C199   1.206       .  T
C200        C201   1.206       .  T
C202        C222   1.446       .  S
C202        C203   1.206       .  T
C204        C205   1.206       .  T
C206        C207   1.206       .  T
O208        C211   1.268       .  A
O208       Cd213   2.479       .  S
C209        O218   1.263   1_545  A
C209        C272   1.434       .  S
C211        O219   1.263       .  A
C211        C275   1.434       .  S
C212        O217   1.268       .  A
C212        O215   1.263       .  A
C212        C273   1.434       .  S
Cd213       O220   2.433       .  S
Cd213       O219   2.433       .  S
C216        O220   1.263       .  A
C216        C269   1.434       .  S
C221        C222   1.351       .  D
C221        C270   1.446       .  S
C222        C267   1.446       .  S
O223       Cd228   2.479       .  S
C224        O233   1.263   1_455  A
C224        C262   1.434       .  S
C226        O234   1.263   1_545  A
C226        C266   1.434       .  S
C227        O230   1.263       .  A
C227        C268   1.434       .  S
Cd228       O229   2.479       .  S
C231        O235   1.263       .  A
C231        C264   1.434       .  S
C236        C237   1.351       .  D
C236        C257   1.446       .  S
C236        C263   1.446       .  S
C237        C259   1.446       .  S
C237        C261   1.446       .  S
O238       Cd243   2.479       .  S
C239        O248   1.263       .  A
C239        O244   1.268       .  A
C239        C254   1.434       .  S
O240        C246   1.268       .  A
C241        O249   1.263   1_455  A
C241        C258   1.434       .  S
C242        O245   1.263       .  A
C242        C260   1.434       .  S
C246        O250   1.263       .  A
C246        C255   1.434       .  S
C251        C252   1.351       .  D
C251        C253   1.446       .  S
C251        C276   1.446       .  S
C252        C256   1.446       .  S
C252        C274   1.446       .  S
C253        C254   1.206       .  T
C255        C256   1.206       .  T
C259        C260   1.206       .  T
C263        C264   1.206       .  T
C265        C266   1.206       .  T
C267        C268   1.206       .  T
C269        C270   1.206       .  T
C271        C272   1.206       .  T
C273        C274   1.206       .  T
C275        C276   1.206       .  T
