geometry optimzed in LAMMPS
_audit_creation_date              2020-11-30 
_audit_creation_method            'lammps2cif' 
_symmetry_space_group_name_H-M    'P1' 
_symmetry_Int_Tables_number       1 
_symmetry_cell_setting            triclinic 
loop_ 
_symmetry_equiv_pos_as_xyz 
  x,y,z 
_cell_length_a                    29.45091289 
_cell_length_b                    29.376631274867986 
_cell_length_c                    54.48873035351226 
_cell_angle_alpha                 90.053283933213 
_cell_angle_beta                  89.99763822113871 
_cell_angle_gamma                 120.17181324498848 
loop_ 
_atom_site_label 
_atom_site_type_symbol 
_atom_site_fract_x 
_atom_site_fract_y 
_atom_site_fract_z 
_atom_site_charge 
C1          C  0.03172614  0.23271304  0.49707322     0.04000
C2          C  0.01099989  0.17814739  0.49578330    -0.12100
C3          C  0.02007105  0.15514049  0.47513009     0.01500
C4          C  0.04976981  0.18750162  0.45549933    -0.10600
C5          C  0.07124749  0.24250650  0.45664414     0.04000
C6          C  0.06196244  0.26451643  0.47759905    -0.10100
H7          H  0.98747686  0.15359075  0.51085126     0.09600
H8          H  0.05627415  0.16971298  0.43949649     0.07200
H9          H  0.07800001  0.30659428  0.47885323     0.07000
C10         C  0.96810811  0.77400126  0.80812517     0.04000
C11         C  0.00339058  0.78723838  0.82774294    -0.12100
C12         C  0.00931781  0.82552257  0.84478318     0.01500
C13         C  0.97906307  0.84983943  0.84235632    -0.10600
C14         C  0.94353726  0.83700683  0.82289402     0.04000
C15         C  0.93802001  0.79874494  0.80584032    -0.10100
H16         H  0.02717152  0.76878633  0.82934114     0.09600
H17         H  0.98425579  0.87990119  0.85540494     0.07200
H18         H  0.91097323  0.78876072  0.79062517     0.07000
C19         C  0.81505763  0.69946574  0.49199219     0.04000
C20         C  0.77451942  0.67232718  0.47505720    -0.12100
C21         C  0.76751731  0.69898872  0.45552324     0.01500
C22         C  0.80007879  0.75387084  0.45342971    -0.10600
C23         C  0.83921743  0.78224049  0.47113151     0.04000
C24         C  0.84710251  0.75433066  0.49000906    -0.10100
H25         H  0.74975585  0.62994220  0.47634530     0.09600
H26         H  0.79340145  0.77437347  0.43862220     0.07200
H27         H  0.87808587  0.77522815  0.50330766     0.07000
O28         O  0.84087715  0.46712926  0.62370557    -0.56900
C29         C  0.85532161  0.36754945  0.67993251     0.75700
O30         O  0.97795910  0.45083366  0.62839196    -0.58100
C31         C  0.87660597  0.50766972  0.61284317     0.75700
C32         C  0.92903463  0.53025437  0.68588772     0.78100
Cd33       Cd  0.90417088  0.45544809  0.64815583     1.37500
O34         O  0.82672686  0.37755994  0.66603604    -0.56900
O35         O  0.88334684  0.50130330  0.67736916    -0.55700
C36         C  0.94666137  0.41064162  0.61573949     0.78100
O37         O  0.96618635  0.52553912  0.67661666    -0.58100
O38         O  0.90457176  0.39811024  0.67880552    -0.56500
O39         O  0.92389476  0.52261170  0.61825493    -0.56500
O40         O  0.89796187  0.39367747  0.61800079    -0.55700
C41         C  0.15503758  0.17943798  0.11183679     0.04000
C42         C  0.10022271  0.15235314  0.11527897    -0.12100
C43         C  0.07725222  0.17086200  0.13235348     0.01500
C44         C  0.10978125  0.21602123  0.14640538    -0.10600
C45         C  0.16466108  0.24126011  0.14413835     0.04000
C46         C  0.18659049  0.22336537  0.12651128    -0.10100
H47         H  0.07537100  0.11781355  0.10433958     0.09600
H48         H  0.09255210  0.22935016  0.16018231     0.07200
H49         H  0.22887981  0.24322799  0.12463913     0.07000
C50         C  0.63010263  0.97416726  0.15633526     0.04000
C51         C  0.68494012  0.00321952  0.15472241    -0.12100
C52         C  0.71601231  0.99614456  0.17203287     0.01500
C53         C  0.69201382  0.96113947  0.19166728    -0.10600
C54         C  0.63682339  0.93319582  0.19416543     0.04000
C55         C  0.60648188  0.93974597  0.17609990    -0.10100
H56         H  0.70356483  0.02934879  0.13929772     0.09600
H57         H  0.71663908  0.95651797  0.20498067     0.07200
H58         H  0.56416613  0.91785659  0.17702218     0.07000
O59         O  0.33537057  0.52135522  0.34091333    -0.56900
C60         C  0.45594930  0.64794058  0.29926990     0.75700
O61         O  0.49084143  0.53910712  0.32195787    -0.58100
C62         C  0.32049080  0.47260100  0.34232473     0.75700
C63         C  0.36797062  0.48295178  0.26744098     0.78100
Cd64       Cd  0.40863927  0.53904765  0.31270291     1.37500
O65         O  0.40754070  0.62256749  0.30478333    -0.56900
O66         O  0.35002420  0.50895659  0.27792042    -0.55700
C67         C  0.48864218  0.54563872  0.34486850     0.78100
O68         O  0.40764693  0.48416778  0.27728171    -0.58100
O69         O  0.48084846  0.62351602  0.30083589    -0.56500
O70         O  0.34637533  0.45641562  0.33029840    -0.56500
O71         O  0.44858423  0.54635523  0.35276440    -0.55700
C72         C  0.69604662  0.04427142  0.82727043     0.04000
C73         C  0.70231260  0.07583215  0.80675394    -0.12100
C74         C  0.73455813  0.07886753  0.78717834     0.01500
C75         C  0.75959412  0.04894872  0.78782495    -0.10600
C76         C  0.75358580  0.01693235  0.80805343     0.04000
C77         C  0.72140207  0.01451694  0.82766531    -0.10100
H78         H  0.68358767  0.09947185  0.80630895     0.09600
H79         H  0.78547671  0.05227935  0.77294092     0.07200
H80         H  0.71689910  0.99030907  0.84347191     0.07000
O81         O  0.30813297  0.92876738  0.96799619    -0.56900
C82         C  0.43303105  0.99899529  0.02622376     0.75700
O83         O  0.45162885  0.06639802  0.95397373    -0.58100
C84         C  0.29496472  0.95466455  0.95383733     0.75700
C85         C  0.33447919  0.05907944  0.01133318     0.78100
Cd86       Cd  0.38312247  0.01142578  0.98468412     1.37500
O87         O  0.39254667  0.95904634  0.01740655    -0.56900
O88         O  0.31960694  0.01050023  0.01231266    -0.55700
C89         C  0.46298333  0.03061553  0.94973076     0.78100
O90         O  0.37442949  0.08807327  0.99806416    -0.58100
O91         O  0.44904656  0.04292960  0.01570427    -0.56500
O92         O  0.32376517  0.00425858  0.95368751    -0.56500
O93         O  0.43793451  0.98808422  0.96164256    -0.55700
C94         C  0.62406074  0.06817927  0.87367169     0.21300
C95         C  0.60226213  0.09544448  0.88535939    -0.38600
C96         C  0.56480323  0.06731818  0.90356478     0.20200
C97         C  0.55078617  0.01620307  0.90973530     0.22900
C98         C  0.57291506  0.98916730  0.89824127    -0.39100
C99         C  0.60997207  0.01711670  0.87993512     0.21700
N100        N  0.65745661  0.08474763  0.85462154    -0.32400
C101        C  0.66445264  0.04386005  0.84852910    -0.10000
C102        C  0.63589547  0.00115446  0.86418558    -0.28800
N103        N  0.51323060  0.99740051  0.92695229    -0.45400
C104        C  0.50300702  0.03661733  0.93184701    -0.04600
C105        C  0.53440754  0.08103487  0.91762360    -0.22000
H106        H  0.61259398  0.13505333  0.88016146     0.19800
H107        H  0.56108832  0.94883662  0.90277355     0.18600
H108        H  0.63246111  0.96273101  0.86340604     0.14900
H109        H  0.53450644  0.11792105  0.91737833     0.14700
H110        H  0.67378807  0.12154676  0.84608967     0.32900
H111        H  0.49513895  0.95982457  0.93469992     0.35700
C112        C  0.54889069  0.83971020  0.23860791     0.21300
C113        C  0.49979403  0.80355341  0.24858476    -0.38600
C114        C  0.50028897  0.76975738  0.26658776     0.20200
C115        C  0.54639147  0.77217546  0.27406749     0.22900
C116        C  0.59544600  0.80850297  0.26416168    -0.39100
C117        C  0.59480831  0.84199041  0.24606651     0.21700
N118        N  0.55816228  0.87281382  0.21987747    -0.32400
C119        C  0.61046960  0.89619813  0.21498545    -0.10000
C120        C  0.63459305  0.87802418  0.23126185    -0.28800
N121        N  0.53591815  0.73144293  0.28870862    -0.45400
C122        C  0.48288471  0.70236380  0.29032309    -0.04600
C123        C  0.45915753  0.72554441  0.27718850    -0.22000
H124        H  0.46360933  0.80011975  0.24186802     0.19800
H125        H  0.63109379  0.80871272  0.26922042     0.18600
H126        H  0.67517448  0.88763689  0.23162253     0.14900
H127        H  0.41767874  0.70912714  0.27355883     0.14700
H128        H  0.52966238  0.87775844  0.21091535     0.32900
H129        H  0.56305325  0.72147670  0.29540653     0.35700
C130        C  0.57124097  0.00906469  0.10793263     0.21300
C131        C  0.56730405  0.04172465  0.09041047    -0.38600
C132        C  0.52245104  0.01767976  0.07556473     0.20200
C133        C  0.48438712  0.96508008  0.07785577     0.22900
C134        C  0.48806187  0.93252531  0.09558710    -0.39100
C135        C  0.53288595  0.95668935  0.11053912     0.21700
N136        N  0.61072680  0.02211553  0.12383837    -0.32400
C137        C  0.59718873  0.97782831  0.13687339    -0.10000
C138        C  0.54882845  0.93622607  0.12909070    -0.28800
N139        N  0.44679391  0.95132712  0.06074417    -0.47500
C140        C  0.46132578  0.99566298  0.04759126    -0.04600
C141        C  0.50797722  0.03782247  0.05637961    -0.22000
H142        H  0.59732191  0.08262702  0.08824424     0.19800
H143        H  0.45860966  0.89133467  0.09740378     0.18600
H144        H  0.52858995  0.89606969  0.13571858     0.14900
H145        H  0.52915448  0.07756664  0.04924915     0.14700
H146        H  0.64452990  0.05898245  0.12579565     0.32900
H147        H  0.41393937  0.91411334  0.05793919     0.35700
C148        C  0.85007344  0.03779686  0.15866006     0.21300
C149        C  0.89275440  0.03195614  0.15148500    -0.38600
C150        C  0.93912171  0.07874046  0.14538176     0.20200
C151        C  0.94266077  0.12748872  0.14657954     0.22900
C152        C  0.89979461  0.13319217  0.15330150    -0.39100
C153        C  0.85346284  0.08652447  0.15919491     0.21700
N154        N  0.80133286  0.99951430  0.16473612    -0.32400
C155        C  0.77344884  0.02412337  0.16871400    -0.10000
C156        C  0.80461736  0.07834262  0.16545327    -0.28800
N157        N  0.99163128  0.16614223  0.14130254    -0.45400
C158        C  0.01969337  0.14203512  0.13652955    -0.04600
C159        C  0.98806396  0.08737872  0.13860608    -0.22000
H160        H  0.89012725  0.99388045  0.15079573     0.19800
H161        H  0.90238434  0.17125375  0.15396893     0.18600
H162        H  0.79256273  0.10753314  0.16664141     0.14900
H163        H  0.99998596  0.05820133  0.13668562     0.14700
H164        H  0.78717133  0.95907584  0.16491781     0.32900
H165        H  0.00535930  0.20648638  0.14140677     0.35700
C166        C  0.23051728  0.34878311  0.18643716     0.21300
C167        C  0.23706201  0.38986081  0.20186025    -0.38600
C168        C  0.28186152  0.41171806  0.21684709     0.20200
C169        C  0.31758002  0.39415058  0.21660334     0.22900
C170        C  0.31137038  0.35348048  0.20094359    -0.39100
C171        C  0.26660543  0.33172823  0.18589886     0.21700
N172        N  0.18964201  0.31932771  0.17152145    -0.32400
C173        C  0.20001636  0.28349928  0.16124607    -0.10000
C174        C  0.24780603  0.29026735  0.16974649    -0.28800
N175        N  0.35454884  0.41873023  0.23398834    -0.45400
C176        C  0.34202884  0.45202568  0.24533384    -0.04600
C177        C  0.29726710  0.44899596  0.23501630    -0.22000
H178        H  0.20852529  0.40274857  0.20270886     0.19800
H179        H  0.33851817  0.33880379  0.20096963     0.18600
H180        H  0.26548726  0.26663346  0.16543466     0.14900
H181        H  0.27713416  0.46942940  0.24089538     0.14700
H182        H  0.15651433  0.32315769  0.16867026     0.32900
H183        H  0.38504858  0.41168061  0.23854112     0.35700
C184        C  0.19852458  0.11188417  0.07178706     0.21300
C185        C  0.19851059  0.06839251  0.06119346    -0.38600
C186        C  0.24283671  0.07979395  0.04709743     0.20200
C187        C  0.28403117  0.13060610  0.04354232     0.22900
C188        C  0.28416916  0.17415110  0.05426726    -0.39100
C189        C  0.23992307  0.16265937  0.06854775     0.21700
N190        N  0.16199762  0.11128592  0.08684766    -0.32400
C191        C  0.18053758  0.16211879  0.09351968    -0.10000
C192        C  0.22895905  0.19521718  0.08230351    -0.28800
N193        N  0.32213187  0.13053154  0.02983986    -0.45400
C194        C  0.30500553  0.07911328  0.02497837    -0.04600
C195        C  0.25580640  0.04651690  0.03537927    -0.22000
H196        H  0.16678853  0.02848478  0.06409572     0.19800
H197        H  0.31671279  0.21389392  0.05206573     0.18600
H198        H  0.25350723  0.23743703  0.08427248     0.14900
H199        H  0.23290569  0.00395150  0.03473836     0.14700
H200        H  0.12785458  0.07818244  0.09296922     0.32900
H201        H  0.35781585  0.16300709  0.02469277     0.35700
C202        C  0.78116202  0.25311730  0.71703328     0.21300
C203        C  0.73712960  0.21092708  0.72835808    -0.38600
C204        C  0.74757741  0.17723775  0.74262229     0.20200
C205        C  0.79775821  0.18483464  0.74491450     0.22900
C206        C  0.84141583  0.22707492  0.73399865    -0.39100
C207        C  0.83118994  0.26081961  0.72019027     0.21700
N208        N  0.78255206  0.29065956  0.70229685    -0.32400
C209        C  0.83398960  0.32207972  0.69641665    -0.10000
C210        C  0.86527099  0.30493856  0.70741655    -0.28800
N211        N  0.79827278  0.14900240  0.75983997    -0.45400
C212        C  0.74832466  0.11859277  0.76774241    -0.04600
C213        C  0.71525563  0.13478349  0.75735136    -0.22000
H214        H  0.69799146  0.20514586  0.72646240     0.19800
H215        H  0.88072684  0.23350239  0.73630207     0.18600
H216        H  0.90736217  0.32187335  0.70578207     0.14900
H217        H  0.67378256  0.11885921  0.76076828     0.14700
H218        H  0.75087316  0.29451047  0.69654932     0.32900
H219        H  0.83132284  0.14741300  0.76546300     0.35700
C220        C  0.64916167  0.61460550  0.42300050     0.21300
C221        C  0.59483658  0.58149508  0.42013469    -0.38600
C222        C  0.57664136  0.57124681  0.39586065     0.20200
C223        C  0.61017167  0.59116613  0.37591554     0.22900
C224        C  0.66457190  0.62433054  0.37880716    -0.39100
C225        C  0.68259345  0.63587396  0.40310089     0.21700
N226        N  0.67540731  0.63394192  0.44408963    -0.32400
C227        C  0.72555232  0.66866845  0.43761400    -0.10000
C228        C  0.73175973  0.67084803  0.41220608    -0.28800
N229        N  0.58272541  0.58028804  0.35487698    -0.45400
C230        C  0.53145139  0.55456277  0.36158180    -0.04600
C231        C  0.52609417  0.54776013  0.38694288    -0.22000
H232        H  0.56837370  0.56726494  0.43566931     0.19800
H233        H  0.69052510  0.64224896  0.36330079     0.18600
H234        H  0.76724119  0.69522579  0.40185420     0.14900
H235        H  0.49021950  0.53161875  0.39754556     0.14700
H236        H  0.65971630  0.62548176  0.46193529     0.32900
H237        H  0.59778117  0.59366978  0.33743327     0.35700
C238        C  0.81124196  0.61065887  0.53793830     0.21300
C239        C  0.78847858  0.56688186  0.55363941    -0.38600
C240        C  0.82367382  0.56092083  0.56875166     0.20200
C241        C  0.87730502  0.59574279  0.56804639     0.22900
C242        C  0.89995197  0.63945749  0.55245363    -0.39100
C243        C  0.86480609  0.64564898  0.53756287     0.21700
N244        N  0.78655065  0.62528454  0.52180588    -0.32400
C245        C  0.82470974  0.67020446  0.51131256    -0.10000
C246        C  0.87403280  0.68403648  0.52068827    -0.28800
N247        N  0.90247557  0.58114990  0.58379960    -0.45400
C248        C  0.86472659  0.53675081  0.59465637    -0.04600
C249        C  0.81493417  0.52287035  0.58589902    -0.22000
H250        H  0.74658733  0.53955287  0.55403957     0.19800
H251        H  0.94186602  0.66668977  0.55198570     0.18600
H252        H  0.91168178  0.71723223  0.51558344     0.14900
H253        H  0.77767017  0.48927051  0.59112511     0.14700
H254        H  0.74616804  0.60622357  0.51843810     0.32900
H255        H  0.94296890  0.60008916  0.58686628     0.35700
C256        C  0.87401555  0.90258035  0.80439369     0.21300
C257        C  0.85042372  0.92195358  0.78827029    -0.38600
C258        C  0.82677949  0.94806067  0.79940908     0.20200
C259        C  0.82700624  0.95449778  0.82457975     0.22900
C260        C  0.85127143  0.93597968  0.84057730    -0.39100
C261        C  0.87446604  0.90969753  0.82950972     0.21700
N262        N  0.89781583  0.87505596  0.79867369    -0.32400
C263        C  0.91362817  0.86487791  0.82038003    -0.10000
C264        C  0.89968003  0.88599498  0.83995623    -0.28800
N265        N  0.80078819  0.97919699  0.83076627    -0.45400
C266        C  0.78359217  0.98888453  0.80940893    -0.04600
C267        C  0.79936210  0.97024803  0.78938711    -0.22000
H268        H  0.84980118  0.91641559  0.76860676     0.19800
H269        H  0.85133527  0.94092541  0.86026805     0.18600
H270        H  0.90645730  0.88382928  0.85932892     0.14900
H271        H  0.79122331  0.97196059  0.77014929     0.14700
H272        H  0.90358123  0.86466555  0.78111907     0.32900
H273        H  0.79567040  0.98941234  0.84846104     0.35700
C274        C  0.93020991  0.67378743  0.76274440     0.21300
C275        C  0.89554098  0.63298885  0.74736852    -0.38600
C276        C  0.91830092  0.61120289  0.73245231     0.20200
C277        C  0.97162203  0.62871846  0.73254294     0.22900
C278        C  0.00645493  0.66959630  0.74808271    -0.39100
C279        C  0.98348884  0.69114916  0.76328819     0.21700
N280        N  0.91804381  0.70093678  0.77858455    -0.32400
C281        C  0.96380753  0.73560274  0.78956200    -0.10000
C282        C  0.00555797  0.73066368  0.78056714    -0.28800
N283        N  0.98316426  0.60180663  0.71607039    -0.45400
C284        C  0.93655784  0.56722264  0.70561543    -0.04600
C285        C  0.89542881  0.57178005  0.71545695    -0.22000
H286        H  0.85387028  0.61928418  0.74699397     0.19800
H287        H  0.04816947  0.68354053  0.74833201     0.18600
H288        H  0.04656107  0.75348795  0.78568204     0.14900
H289        H  0.85426158  0.54965540  0.71052193     0.14700
H290        H  0.88087413  0.69575118  0.78190473     0.32900
H291        H  0.02003436  0.60696557  0.71203374     0.35700
C292        C  0.10543801  0.84505563  0.89008508     0.21300
C293        C  0.13617551  0.83225507  0.90515051    -0.38600
C294        C  0.17752137  0.87477256  0.91761217     0.20200
C295        C  0.18708126  0.92575714  0.91505772     0.22900
C296        C  0.15610830  0.93836119  0.90037180    -0.39100
C297        C  0.11501053  0.89610415  0.88807496     0.21700
N298        N  0.06571750  0.81268387  0.87524176    -0.32400
C299        C  0.05001711  0.84363420  0.86394742    -0.10000
C300        C  0.07973915  0.89578341  0.87161269    -0.28800
N301        N  0.22974449  0.95952731  0.92764979    -0.45400
C302        C  0.24780482  0.93033580  0.93849234    -0.04600
C303        C  0.21613171  0.87698398  0.93288517    -0.22000
H304        H  0.12917985  0.79249623  0.90661247     0.19800
H305        H  0.16418189  0.97839543  0.89825602     0.18600
H306        H  0.07742851  0.92942153  0.86519204     0.14900
H307        H  0.22129713  0.84465635  0.93869850     0.14700
H308        H  0.05072866  0.77241339  0.87277622     0.32900
H309        H  0.24593801  0.00046838  0.92868607     0.35700
C310        C  0.95814621  0.01745556  0.46055541     0.21300
C311        C  0.93091770  0.97206625  0.44594659    -0.38600
C312        C  0.91037464  0.92377814  0.45837405     0.20200
C313        C  0.91676302  0.92108787  0.48337039     0.22900
C314        C  0.94361391  0.96635052  0.49798413    -0.39100
C315        C  0.96386306  0.01449696  0.48560501     0.21700
N316        N  0.97930123  0.06795158  0.45340606    -0.32400
C317        C  0.99785062  0.09730522  0.47415305    -0.10000
C318        C  0.98926466  0.06519597  0.49455292    -0.28800
N319        N  0.89296356  0.87079778  0.49091137    -0.45400
C320        C  0.87087083  0.84076481  0.47060928    -0.04600
C321        C  0.88090214  0.87265497  0.44992679    -0.22000
H322        H  0.92541888  0.97418909  0.42642967     0.19800
H323        H  0.94768157  0.96422003  0.51762872     0.18600
H324        H  0.99907630  0.07720079  0.51350559     0.14900
H325        H  0.86837831  0.86028200  0.43123109     0.14700
H326        H  0.97889071  0.08132788  0.43574925     0.32900
H327        H  0.89078954  0.85809488  0.50893195     0.35700
C328        C  0.21432171  0.40422048  0.38427749     0.21300
C329        C  0.17887908  0.39810473  0.40294157    -0.38600
C330        C  0.15132674  0.34776964  0.41349742     0.20200
C331        C  0.15848801  0.30677955  0.40607206     0.22900
C332        C  0.19371174  0.31280456  0.38738860    -0.39100
C333        C  0.22115791  0.36296603  0.37683431     0.21700
N334        N  0.24769868  0.44884730  0.37235595    -0.32400
C335        C  0.27595628  0.43550928  0.35739413    -0.10000
C336        C  0.26019190  0.38234476  0.35951871    -0.28800
N337        N  0.12987855  0.26377659  0.41987570    -0.45400
C338        C  0.10425809  0.27734503  0.43641611    -0.04600
C339        C  0.11650716  0.32951235  0.43276667    -0.22000
H340        H  0.17414844  0.43043472  0.40923874     0.19800
H341        H  0.20028586  0.28115092  0.38190877     0.18600
H342        H  0.27668730  0.36123073  0.35036206     0.14900
H343        H  0.10290069  0.35185337  0.44306050     0.14700
H344        H  0.25223753  0.48599559  0.37485489     0.32900
H345        H  0.12987472  0.22838250  0.41866560     0.35700
C346        C  0.95953144  0.32155599  0.57605578     0.21300
C347        C  0.94154274  0.27489290  0.56263030    -0.38600
C348        C  0.97843352  0.27321465  0.54705923     0.20200
C349        C  0.02921405  0.31509621  0.54485226     0.22900
C350        C  0.04752345  0.36152757  0.55865695    -0.39100
C351        C  0.01067047  0.36305349  0.57445365     0.21700
N352        N  0.93113154  0.33368291  0.59103820    -0.32400
C353        C  0.96432197  0.38301770  0.59932668    -0.10000
C354        C  0.01456986  0.40274585  0.58956365    -0.28800
N355        N  0.05519904  0.30533357  0.52730560    -0.45400
C356        C  0.02081970  0.25678136  0.51840383    -0.04600
C357        C  0.97265774  0.23526161  0.53048590    -0.22000
H358        H  0.90134397  0.24282064  0.56373683     0.19800
H359        H  0.08704859  0.39451589  0.55673255     0.18600
H360        H  0.04862204  0.44129433  0.59246163     0.14900
H361        H  0.93731332  0.19822971  0.52666725     0.14700
H362        H  0.89141214  0.31002935  0.59518286     0.32900
H363        H  0.09362669  0.33065655  0.52142601     0.35700
loop_ 
_geom_bond_atom_site_label_1 
_geom_bond_atom_site_label_2 
_geom_bond_distance 
_geom_bond_site_symmetry_2 
_ccdc_geom_bond_type 
C1            C2   1.401       .  A
C1            C6   1.399       .  A
C1          C356   1.477       .  S
C2            C3   1.405       .  A
C2            H7   1.083   1_455  S
C3            C4   1.407       .  A
C3          C317   1.483   1_455  S
C4            C5   1.410       .  A
C4            H8   1.082       .  S
C5            C6   1.405       .  A
C5          C338   1.486       .  S
C6            H9   1.081       .  S
C10          C11   1.402   1_655  A
C10          C15   1.406       .  A
C10         C281   1.472       .  S
C11          C12   1.399       .  A
C11          H16   1.083       .  S
C12          C13   1.401   1_455  A
C12         C299   1.472       .  S
C13          C14   1.402       .  A
C13          H17   1.083       .  S
C14          C15   1.403       .  A
C14         C263   1.480       .  S
C15          H18   1.083       .  S
C19          C20   1.398       .  A
C19          C24   1.404       .  A
C19         C245   1.475       .  S
C20          C21   1.397       .  A
C20          H25   1.084       .  S
C21          C22   1.406       .  A
C21         C227   1.471       .  S
C22          C23   1.409       .  A
C22          H26   1.083       .  S
C23          C24   1.406       .  A
C23         C320   1.488       .  S
C24          H27   1.082       .  S
O28          C31   1.272       .  A
O28         Cd33   2.452       .  S
C29         C209   1.464       .  S
C29          O38   1.267       .  A
C29          O34   1.272       .  A
O30          C36   1.274       .  A
O30         Cd33   2.489       .  S
C31         C248   1.462       .  S
C31          O39   1.267       .  A
C32         C284   1.463       .  S
C32          O37   1.274       .  A
C32          O35   1.264       .  A
Cd33         O40   2.385       .  S
Cd33         O39   2.396       .  S
Cd33         O38   2.377       .  S
Cd33         O34   2.479       .  S
Cd33         O37   2.489       .  S
Cd33         O35   2.356       .  S
C36         C353   1.467       .  S
C36          O40   1.266       .  A
C41          C42   1.408       .  A
C41          C46   1.400       .  A
C41         C191   1.484       .  S
C42          C43   1.410       .  A
C42          H47   1.083       .  S
C43          C44   1.409       .  A
C43         C158   1.483       .  S
C44          C45   1.405       .  A
C44          H48   1.083       .  S
C45          C46   1.399       .  A
C45         C173   1.481       .  S
C46          H49   1.082       .  S
C50          C51   1.400   1_565  A
C50          C55   1.400       .  A
C50         C137   1.477       .  S
C51          C52   1.401   1_545  A
C51          H56   1.084       .  S
C52          C53   1.405       .  A
C52         C155   1.474   1_565  S
C53          C54   1.412       .  A
C53          H57   1.082       .  S
C54          C55   1.406       .  A
C54         C119   1.492       .  S
C55          H58   1.079       .  S
O59          C62   1.272       .  A
O59         Cd64   2.483       .  S
C60         C122   1.466       .  S
C60          O69   1.260       .  A
C60          O65   1.269       .  A
O61          C67   1.269       .  A
O61         Cd64   2.472       .  S
C62         C335   1.465       .  S
C62          O70   1.265       .  A
C63         C176   1.470       .  S
C63          O68   1.270       .  A
C63          O66   1.263       .  A
Cd64         O71   2.437       .  S
Cd64         O70   2.388       .  S
Cd64         O69   2.408       .  S
Cd64         O65   2.508       .  S
Cd64         O68   2.504       .  S
Cd64         O66   2.412       .  S
C67         C230   1.468       .  S
C67          O71   1.266       .  A
C72          C73   1.405       .  A
C72          C77   1.407       .  A
C72         C101   1.482       .  S
C73          C74   1.401       .  A
C73          H78   1.083       .  S
C74          C75   1.403       .  A
C74         C212   1.475       .  S
C75          C76   1.402       .  A
C75          H79   1.083       .  S
C76          C77   1.406       .  A
C76         C266   1.482   1_545  S
C77          H80   1.082   1_545  S
O81          C84   1.274       .  A
O81         Cd86   2.491   1_565  S
C82         C140   1.464       .  S
C82          O91   1.267   1_565  A
C82          O87   1.274       .  A
O83          C89   1.274       .  A
O83         Cd86   2.492       .  S
C84         C302   1.463       .  S
C84          O92   1.265   1_565  A
C85         C194   1.471       .  S
C85          O90   1.275   1_554  A
C85          O88   1.266       .  A
Cd86         O93   2.401   1_545  S
Cd86         O92   2.363       .  S
Cd86         O91   2.382   1_556  S
Cd86         O87   2.461   1_546  S
Cd86         O90   2.499       .  S
Cd86         O88   2.391   1_556  S
C89         C104   1.470       .  S
C89          O93   1.266   1_545  A
C94          C99   1.384       .  A
C94          C95   1.405       .  A
C94         N100   1.342       .  A
C95          C96   1.403       .  A
C95         H106   1.082       .  S
C96         C105   1.383       .  A
C96          C97   1.384       .  A
C97          C98   1.403   1_545  A
C97         N103   1.340   1_545  A
C98          C99   1.400   1_565  A
C98         H107   1.082       .  S
C99         C102   1.378       .  A
N100        C101   1.358       .  A
N100        H110   1.046       .  S
C101        C102   1.397       .  A
C102        H108   1.082   1_545  S
N103        C104   1.355   1_565  A
N103        H111   1.044       .  S
C104        C105   1.395       .  A
C105        H109   1.082       .  S
C112        C117   1.381       .  A
C112        C113   1.404       .  A
C112        N118   1.340       .  A
C113        C114   1.402       .  A
C113        H124   1.082       .  S
C114        C123   1.381       .  A
C114        C115   1.385       .  A
C115        C116   1.403       .  A
C115        N121   1.339       .  A
C116        C117   1.400       .  A
C116        H125   1.082       .  S
C117        C120   1.378       .  A
N118        C119   1.361       .  A
N118        H128   1.042       .  S
C119        C120   1.399       .  A
C120        H126   1.081       .  S
N121        C122   1.355       .  A
N121        H129   1.045       .  S
C122        C123   1.394       .  A
C123        H127   1.082       .  S
C130        C135   1.385   1_545  A
C130        C131   1.400       .  A
C130        N136   1.342       .  A
C131        C132   1.400       .  A
C131        H142   1.082       .  S
C132        C141   1.371       .  A
C132        C133   1.385   1_545  A
C133        C134   1.402       .  A
C133        N139   1.345       .  A
C134        C135   1.403       .  A
C134        H143   1.082       .  S
C135        C138   1.374       .  A
N136        C137   1.355   1_545  A
N136        H146   1.045       .  S
C137        C138   1.397       .  A
C138        H144   1.082       .  S
N139        C140   1.354       .  A
N139        H147   1.045       .  S
C140        C141   1.393   1_565  A
C141        H145   1.083       .  S
C148        C153   1.384       .  A
C148        C149   1.407       .  A
C148        N154   1.346   1_545  A
C149        C150   1.407       .  A
C149        H160   1.082   1_545  S
C150        C159   1.382       .  A
C150        C151   1.384       .  A
C151        C152   1.403       .  A
C151        N157   1.344       .  A
C152        C153   1.402       .  A
C152        H161   1.082       .  S
C153        C156   1.377       .  A
N154        C155   1.357   1_565  A
N154        H164   1.043       .  S
C155        C156   1.394       .  A
C156        H162   1.082       .  S
N157        C158   1.357   1_655  A
N157        H165   1.042   1_655  S
C158        C159   1.398   1_455  A
C159        H163   1.082       .  S
C166        C171   1.384       .  A
C166        C167   1.401       .  A
C166        N172   1.345       .  A
C167        C168   1.403       .  A
C167        H178   1.082       .  S
C168        C177   1.373       .  A
C168        C169   1.385       .  A
C169        C170   1.403       .  A
C169        N175   1.346       .  A
C170        C171   1.404       .  A
C170        H179   1.082       .  S
C171        C174   1.373       .  A
N172        C173   1.355       .  A
N172        H182   1.048       .  S
C173        C174   1.398       .  A
C174        H180   1.082       .  S
N175        C176   1.355       .  A
N175        H183   1.048       .  S
C176        C177   1.394       .  A
C177        H181   1.083       .  S
C184        C189   1.384       .  A
C184        C185   1.401       .  A
C184        N190   1.346       .  A
C185        C186   1.403       .  A
C185        H196   1.082       .  S
C186        C195   1.372       .  A
C186        C187   1.385       .  A
C187        C188   1.404       .  A
C187        N193   1.349       .  A
C188        C189   1.406       .  A
C188        H197   1.082       .  S
C189        C192   1.375       .  A
N190        C191   1.356       .  A
N190        H200   1.042       .  S
C191        C192   1.400       .  A
C192        H198   1.082       .  S
N193        C194   1.356       .  A
N193        H201   1.042       .  S
C194        C195   1.394       .  A
C195        H199   1.083       .  S
C202        C207   1.384       .  A
C202        C203   1.409       .  A
C202        N208   1.349       .  A
C203        C204   1.409       .  A
C203        H214   1.082       .  S
C204        C213   1.384       .  A
C204        C205   1.385       .  A
C205        C206   1.394       .  A
C205        N211   1.337       .  A
C206        C207   1.393       .  A
C206        H215   1.083       .  S
C207        C210   1.366       .  A
N208        C209   1.358       .  A
N208        H218   1.043       .  S
C209        C210   1.389       .  A
C210        H216   1.083       .  S
N211        C212   1.352       .  A
N211        H219   1.044       .  S
C212        C213   1.401       .  A
C213        H217   1.082       .  S
C220        C225   1.385       .  A
C220        C221   1.402       .  A
C220        N226   1.341       .  A
C221        C222   1.402       .  A
C221        H232   1.082       .  S
C222        C231   1.377       .  A
C222        C223   1.385       .  A
C223        C224   1.404       .  A
C223        N229   1.345       .  A
C224        C225   1.403       .  A
C224        H233   1.082       .  S
C225        C228   1.379       .  A
N226        C227   1.354       .  A
N226        H236   1.052       .  S
C227        C228   1.394       .  A
C228        H234   1.082       .  S
N229        C230   1.356       .  A
N229        H237   1.039       .  S
C230        C231   1.394       .  A
C231        H235   1.082       .  S
C238        C243   1.384       .  A
C238        C239   1.404       .  A
C238        N244   1.342       .  A
C239        C240   1.402       .  A
C239        H250   1.082       .  S
C240        C249   1.379       .  A
C240        C241   1.385       .  A
C241        C242   1.399       .  A
C241        N247   1.338       .  A
C242        C243   1.397       .  A
C242        H251   1.082       .  S
C243        C246   1.373       .  A
N244        C245   1.357       .  A
N244        H254   1.045       .  S
C245        C246   1.394       .  A
C246        H252   1.082       .  S
N247        C248   1.353       .  A
N247        H255   1.045       .  S
C248        C249   1.394       .  A
C249        H253   1.082       .  S
C256        C261   1.383       .  A
C256        C257   1.406       .  A
C256        N262   1.346       .  A
C257        C258   1.406       .  A
C257        H268   1.082       .  S
C258        C267   1.380       .  A
C258        C259   1.384       .  A
C259        C260   1.399       .  A
C259        N265   1.341       .  A
C260        C261   1.398       .  A
C260        H269   1.082       .  S
C261        C264   1.371       .  A
N262        C263   1.359       .  A
N262        H272   1.043       .  S
C263        C264   1.395       .  A
C264        H270   1.082       .  S
N265        C266   1.355       .  A
N265        H273   1.043       .  S
C266        C267   1.400       .  A
C267        H271   1.082       .  S
C274        C279   1.385       .  A
C274        C275   1.396       .  A
C274        N280   1.340       .  A
C275        C276   1.396       .  A
C275        H286   1.083       .  S
C276        C285   1.366       .  A
C276        C277   1.385       .  A
C277        C278   1.404   1_655  A
C277        N283   1.347       .  A
C278        C279   1.405   1_455  A
C278        H287   1.082       .  S
C279        C282   1.377   1_655  A
N280        C281   1.353       .  A
N280        H290   1.042       .  S
C281        C282   1.397   1_655  A
C282        H288   1.082       .  S
N283        C284   1.356       .  A
N283        H291   1.042   1_655  S
C284        C285   1.391       .  A
C285        H289   1.083       .  S
C292        C297   1.384       .  A
C292        C293   1.406       .  A
C292        N298   1.344       .  A
C293        C294   1.405       .  A
C293        H304   1.082       .  S
C294        C303   1.384       .  A
C294        C295   1.385       .  A
C295        C296   1.396       .  A
C295        N301   1.334       .  A
C296        C297   1.394       .  A
C296        H305   1.083       .  S
C297        C300   1.369       .  A
N298        C299   1.358       .  A
N298        H308   1.043       .  S
C299        C300   1.392       .  A
C300        H306   1.082       .  S
N301        C302   1.352       .  A
N301        H309   1.049   1_565  S
C302        C303   1.396       .  A
C303        H307   1.082       .  S
C310        C315   1.383       .  A
C310        C311   1.406   1_545  A
C310        N316   1.346       .  A
C311        C312   1.406       .  A
C311        H322   1.082       .  S
C312        C321   1.382       .  A
C312        C313   1.383       .  A
C313        C314   1.403       .  A
C313        N319   1.343       .  A
C314        C315   1.402   1_565  A
C314        H323   1.082       .  S
C315        C318   1.376       .  A
N316        C317   1.358       .  A
N316        H326   1.042       .  S
C317        C318   1.397       .  A
C318        H324   1.082       .  S
N319        C320   1.359       .  A
N319        H327   1.041       .  S
C320        C321   1.400       .  A
C321        H325   1.082       .  S
C328        C333   1.385       .  A
C328        C329   1.403       .  A
C328        N334   1.347       .  A
C329        C330   1.404       .  A
C329        H340   1.082       .  S
C330        C339   1.375       .  A
C330        C331   1.383       .  A
C331        C332   1.400       .  A
C331        N337   1.343       .  A
C332        C333   1.400       .  A
C332        H341   1.082       .  S
C333        C336   1.371       .  A
N334        C335   1.356       .  A
N334        H344   1.039       .  S
C335        C336   1.393       .  A
C336        H342   1.083       .  S
N337        C338   1.357       .  A
N337        H345   1.042       .  S
C338        C339   1.401       .  A
C339        H343   1.081       .  S
C346        C351   1.384   1_655  A
C346        C347   1.401       .  A
C346        N352   1.339       .  A
C347        C348   1.399       .  A
C347        H358   1.082       .  S
C348        C357   1.377       .  A
C348        C349   1.384   1_655  A
C349        C350   1.406       .  A
C349        N355   1.342       .  A
C350        C351   1.403       .  A
C350        H359   1.082       .  S
C351        C354   1.384       .  A
N352        C353   1.355       .  A
N352        H362   1.042       .  S
C353        C354   1.395   1_655  A
C354        H360   1.082       .  S
N355        C356   1.357       .  A
N355        H363   1.045       .  S
C356        C357   1.394   1_455  A
C357        H361   1.082       .  S
