geometry optimzed in LAMMPS
_audit_creation_date              2020-12-01 
_audit_creation_method            'lammps2cif' 
_symmetry_space_group_name_H-M    'P1' 
_symmetry_Int_Tables_number       1 
_symmetry_cell_setting            triclinic 
loop_ 
_symmetry_equiv_pos_as_xyz 
  x,y,z 
_cell_length_a                    45.9041676 
_cell_length_b                    45.79315796706756 
_cell_length_c                    62.28988573173809 
_cell_angle_alpha                 89.08666718942658 
_cell_angle_beta                  90.72730859213198 
_cell_angle_gamma                 123.13062585215164 
loop_ 
_atom_site_label 
_atom_site_type_symbol 
_atom_site_fract_x 
_atom_site_fract_y 
_atom_site_fract_z 
_atom_site_charge 
N1          N  0.90998708  0.49619867  0.55096230    -0.26000
N2          N  0.91266594  0.48855348  0.57113732    -0.33800
C3          C  0.94578330  0.49961675  0.57549333     0.02400
C4          C  0.96531469  0.51486717  0.55726379     0.08400
C5          C  0.94183326  0.51226914  0.54183573    -0.04700
H6          H  0.95534403  0.49836749  0.59122816     0.09100
H7          H  0.94784511  0.52336036  0.52579157     0.10300
Cu8        Cu  0.87321876  0.46836975  0.59336593     0.44200
Cu9        Cu  0.86312073  0.48807334  0.53919414     0.42000
Cu10       Cu  0.79292116  0.45759402  0.58053220     0.43900
N11         N  0.83537544  0.45470138  0.61600309    -0.33400
N12         N  0.80488555  0.44988981  0.61147623    -0.27600
C13         C  0.78741573  0.44429230  0.62992791    -0.03700
C14         C  0.80844036  0.44644147  0.64679005     0.08500
C15         C  0.83854053  0.45291632  0.63733180     0.02300
H16         H  0.76253836  0.44155417  0.63108478     0.09900
H17         H  0.86172557  0.45762728  0.64539865     0.09000
N18         N  0.79006866  0.47086057  0.54887084    -0.34800
N19         N  0.81431717  0.48084383  0.53403504    -0.27000
C20         C  0.80270213  0.48648606  0.51544903    -0.02200
C21         C  0.77000347  0.48026090  0.51880061     0.06400
C22         C  0.76284017  0.47035730  0.54016478     0.04500
H23         H  0.81713324  0.49476495  0.50057864     0.09600
H24         H  0.73932277  0.46269169  0.54876232     0.08400
N25         N  0.55432154  0.46978464  0.46887002    -0.26000
N26         N  0.53445969  0.44594379  0.45453034    -0.33800
C27         C  0.50507677  0.44514364  0.45170079     0.02400
C28         C  0.50621155  0.46984398  0.46466343     0.08400
C29         C  0.53786077  0.48508797  0.47552339    -0.04700
H30         H  0.48573432  0.42997565  0.43952653     0.09100
H31         H  0.54906098  0.50706113  0.48624598     0.10300
Cu32       Cu  0.55171959  0.42353868  0.43428031     0.44200
Cu33       Cu  0.60422805  0.48120641  0.47549553     0.42000
Cu34       Cu  0.64108677  0.45480822  0.43234405     0.43900
N35         N  0.57514138  0.42135555  0.40695348    -0.33400
N36         N  0.60865859  0.43376950  0.40556949    -0.27600
C37         C  0.61666823  0.43430602  0.38471821    -0.03700
C38         C  0.58661166  0.42206315  0.37257972     0.08500
C39         C  0.56100772  0.41420366  0.38723376     0.02300
H40         H  0.64276687  0.44556712  0.37873271     0.09900
H41         H  0.53460046  0.40648944  0.38368039     0.09000
N42         N  0.66305720  0.47236208  0.46270954    -0.34800
N43         N  0.64980878  0.48138077  0.47807403    -0.27000
C44         C  0.66881094  0.48775112  0.49608727    -0.02200
C45         C  0.69528997  0.48273918  0.49192852     0.06400
C46         C  0.69090132  0.47308613  0.47058406     0.04500
H47         H  0.66292513  0.49421861  0.51137719     0.09600
H48         H  0.70559473  0.46525691  0.46170031     0.08400
N49         N  0.11796000  0.58185940  0.53803687    -0.26000
N50         N  0.11512605  0.59606126  0.55551384    -0.33800
C51         C  0.08174586  0.58522338  0.55831458     0.02400
C52         C  0.06214402  0.56291689  0.54180348     0.08400
C53         C  0.08604837  0.56161602  0.52906537    -0.04700
H54         H  0.07242091  0.59244459  0.57179087     0.09100
H55         H  0.08041374  0.54588178  0.51494745     0.10300
Cu56       Cu  0.15556606  0.62616471  0.57650013     0.44200
Cu57       Cu  0.16570490  0.58959414  0.52955566     0.42000
Cu58       Cu  0.23558771  0.63172100  0.57160765     0.43900
N59         N  0.19351503  0.64693411  0.60000927    -0.33400
N60         N  0.22288936  0.64821034  0.59891280    -0.27600
C61         C  0.23955909  0.65906641  0.61797612    -0.03700
C62         C  0.21943257  0.66456483  0.63169839     0.08500
C63         C  0.19055802  0.65680788  0.61957343     0.02300
H64         H  0.26365756  0.66116009  0.62190715     0.09900
H65         H  0.16800703  0.65651704  0.62472278     0.09000
N66         N  0.24088569  0.61545200  0.54161922    -0.34800
N67         N  0.21645713  0.60132107  0.52653454    -0.27000
C68         C  0.22970777  0.59584294  0.50903055    -0.02200
C69         C  0.26382623  0.60666370  0.51327320     0.06400
C70         C  0.27002939  0.61893325  0.53410020     0.04500
H71         H  0.21546985  0.58468361  0.49425060     0.09600
H72         H  0.29411902  0.63024100  0.54305437     0.08400
N73         N  0.43071943  0.54474770  0.46770777    -0.26000
N74         N  0.42551273  0.52978020  0.44885544    -0.33800
C75         C  0.44238734  0.51343250  0.44829524     0.02400
C76         C  0.45931894  0.51823852  0.46774612     0.08400
C77         C  0.45151263  0.53844426  0.47966562    -0.04700
H78         H  0.44358245  0.50051645  0.43426516     0.09100
H79         H  0.46054778  0.54810934  0.49571455     0.10300
Cu80       Cu  0.40051622  0.53634660  0.42324789     0.44200
Cu81       Cu  0.40860980  0.57288143  0.47510011     0.42000
Cu82       Cu  0.37315427  0.59505822  0.42841911     0.43900
N83         N  0.38846948  0.55635743  0.39717263    -0.33400
N84         N  0.38029698  0.57978086  0.39871800    -0.27600
C85         C  0.37785877  0.59028296  0.37878702    -0.03700
C86         C  0.38472614  0.57229925  0.36412191     0.08500
C87         C  0.39115074  0.55101229  0.37637846     0.02300
H88         H  0.37171335  0.60955250  0.37530921     0.09900
H89         H  0.39850179  0.53375869  0.37060556     0.09000
N90         N  0.36386143  0.59985959  0.46040038    -0.34800
N91         N  0.37719333  0.59277053  0.47712392    -0.27000
C92         C  0.36378406  0.59642906  0.49522020    -0.02200
C93         C  0.34050790  0.60559871  0.48967790     0.06400
C94         C  0.34135962  0.60772123  0.46746099     0.04500
H95         H  0.36908638  0.59085909  0.51121465     0.09600
H96         H  0.32602413  0.61350829  0.45709327     0.08400
N97         N  0.50923937  0.92942163  0.87517241    -0.26000
N98         N  0.52334022  0.93134636  0.89412121    -0.33800
C99         C  0.54753145  0.96474240  0.89850493     0.02400
C100        C  0.54888386  0.98541656  0.88154729     0.08400
C101        C  0.52436546  0.96201559  0.86690587    -0.04700
H102        H  0.56165924  0.97314277  0.91353068     0.09100
H103        H  0.51676753  0.96840734  0.85194686     0.10300
Cu104      Cu  0.50481243  0.89000876  0.91533133     0.44200
Cu105      Cu  0.46722545  0.88185621  0.86396437     0.42000
Cu106      Cu  0.42425479  0.81030231  0.90537796     0.43900
N107        N  0.47784711  0.85275183  0.93881933    -0.33400
N108        N  0.44760244  0.82320878  0.93570793    -0.27600
C109        C  0.43504193  0.80732863  0.95492410    -0.03700
C110        C  0.45838565  0.82839951  0.97077319     0.08500
C111        C  0.48526131  0.85676970  0.95986266     0.02300
H112        H  0.40973997  0.78363403  0.95732008     0.09900
H113        H  0.50770686  0.87971553  0.96676144     0.09000
N114        N  0.40827832  0.80639114  0.87339620    -0.34800
N115        N  0.42393275  0.83142914  0.85863890    -0.27000
C116        C  0.40641606  0.81959588  0.83996057    -0.02200
C117        C  0.37825560  0.78581003  0.84305760     0.06400
C118        C  0.38029903  0.77826742  0.86445600     0.04500
H119        H  0.41313181  0.83488367  0.82529537     0.09600
H120        H  0.36267989  0.75424460  0.87303446     0.08400
N121        N  0.13176443  0.63581447  0.79557192    -0.26000
N122        N  0.12167259  0.64065620  0.77665409    -0.33800
C123        C  0.08717746  0.62605328  0.77678990     0.02400
C124        C  0.07452429  0.61097819  0.79680299     0.08400
C125        C  0.10358172  0.61753402  0.80831151    -0.04700
H126        H  0.07227671  0.62486449  0.76285929     0.09100
H127        H  0.10409258  0.60912298  0.82455995     0.10300
Cu128      Cu  0.15402180  0.66196646  0.75037751     0.44200
Cu129      Cu  0.18394757  0.65477464  0.80165764     0.42000
Cu130      Cu  0.24374194  0.69081889  0.75472439     0.43900
N131        N  0.18548561  0.67271147  0.72410046    -0.33400
N132        N  0.21829833  0.68216997  0.72522027    -0.27600
C133        C  0.22986325  0.68379902  0.70511096    -0.03700
C134        C  0.20279726  0.67495982  0.69083799     0.08500
C135        C  0.17530249  0.66822830  0.70349132     0.02300
H136        H  0.25569908  0.69036491  0.70126849     0.09900
H137        H  0.14927263  0.65951127  0.69813490     0.09000
N138        N  0.25959628  0.69716269  0.78686379    -0.34800
N139        N  0.23816337  0.68321191  0.80341728    -0.27000
C140        C  0.25692183  0.69370707  0.82169819    -0.02200
C141        C  0.29168185  0.71570700  0.81658335     0.06400
C142        C  0.29248329  0.71723604  0.79432253     0.04500
H143        H  0.24585732  0.68727411  0.83763844     0.09600
H144        H  0.31511589  0.73246427  0.78425110     0.08400
N145        N  0.92213900  0.52032352  0.80036598    -0.26000
N146        N  0.92018354  0.53797306  0.78405888    -0.33800
C147        C  0.95175529  0.56640810  0.78009906     0.02400
C148        C  0.97521977  0.56688665  0.79434372     0.08400
C149        C  0.95560422  0.53722142  0.80713609    -0.04700
H150        H  0.95775836  0.58388434  0.76655435     0.09100
H151        H  0.96514354  0.52761100  0.81950241     0.10300
Cu152      Cu  0.87788079  0.51852965  0.76384168     0.44200
Cu153      Cu  0.87831799  0.47234640  0.80984130     0.42000
Cu154      Cu  0.80675198  0.43030586  0.76927407     0.43900
N155        N  0.84477526  0.49078249  0.73885863    -0.33400
N156        N  0.81853418  0.45788018  0.74039418    -0.27600
C157        C  0.80643642  0.44579508  0.72049119    -0.03700
C158        C  0.82656604  0.47244337  0.70588037     0.08500
C159        C  0.85049137  0.50040861  0.71811108     0.02300
H160        H  0.78694365  0.41887059  0.71684803     0.09900
H161        H  0.87241235  0.52500398  0.71226644     0.09000
N162        N  0.80444103  0.41082415  0.80009820    -0.34800
N163        N  0.82959997  0.42618083  0.81466566    -0.27000
C164        C  0.81849899  0.40737972  0.83302225    -0.02200
C165        C  0.78513390  0.37868555  0.82984794     0.06400
C166        C  0.77702515  0.38167753  0.80877738     0.04500
H167        H  0.83364940  0.41415091  0.84767932     0.09600
H168        H  0.75269872  0.36450751  0.80048979     0.08400
N169        N  0.62848725  0.13838836  0.89343751    -0.26000
N170        N  0.62765266  0.13331475  0.91441586    -0.33800
C171        C  0.61254194  0.09924661  0.91865584     0.02400
C172        C  0.60292451  0.08153587  0.89952729     0.08400
C173        C  0.61341464  0.10711847  0.88369350    -0.04700
H174        H  0.60822345  0.08804624  0.93463961     0.09100
H175        H  0.61052485  0.10337406  0.86650956     0.10300
Cu176      Cu  0.64433870  0.17189879  0.93687457     0.44200
Cu177      Cu  0.65137578  0.18882676  0.88064159     0.42000
Cu178      Cu  0.67753697  0.25910016  0.92122695     0.43900
N179        N  0.65440557  0.20990220  0.95850370    -0.33400
N180        N  0.66565321  0.24235997  0.95303708    -0.27600
C181        C  0.66835775  0.25999576  0.97091249    -0.03700
C182        C  0.65868279  0.23741856  0.98838971     0.08500
C183        C  0.64982328  0.20586342  0.97979917     0.02300
H184        H  0.67727272  0.28727729  0.97122404     0.09900
H185        H  0.64026482  0.18146999  0.98825990     0.09000
N186        N  0.69022517  0.26727545  0.88871999    -0.34800
N187        N  0.68035012  0.24260360  0.87422708    -0.27000
C188        C  0.69431369  0.25790024  0.85514408    -0.02200
C189        C  0.71430811  0.29367104  0.85778399     0.06400
C190        C  0.71100940  0.29865324  0.87925168     0.04500
H191        H  0.69117397  0.24392861  0.84055438     0.09600
H192        H  0.72303158  0.32325863  0.88750695     0.08400
N193        N  0.50068167  0.94111753  0.12940223    -0.26000
N194        N  0.49502667  0.94673238  0.10937770    -0.33800
C195        C  0.50845184  0.98083239  0.10636488     0.02400
C196        C  0.52312231  0.99771308  0.12540775     0.08400
C197        C  0.51772328  0.97180284  0.13982158    -0.04700
H198        H  0.50933530  0.99276404  0.09104243     0.09100
H199        H  0.52765779  0.97530522  0.15606139     0.10300
Cu200      Cu  0.47523830  0.90951519  0.08585818     0.44200
Cu201      Cu  0.48918572  0.89235097  0.13944134     0.42000
Cu202      Cu  0.46612717  0.82809186  0.09563076     0.43900
N203        N  0.46554105  0.87494185  0.06184460    -0.33400
N204        N  0.46234825  0.84470113  0.06486696    -0.27600
C205        C  0.45981756  0.83056762  0.04549017    -0.03700
C206        C  0.46190542  0.85348361  0.02975139     0.08500
C207        C  0.46558727  0.88116629  0.04075972     0.02300
H208        H  0.45886275  0.80672466  0.04304476     0.09900
H209        H  0.46982388  0.90505395  0.03390675     0.09000
N210        N  0.47085690  0.81956923  0.12823027    -0.34800
N211        N  0.47815255  0.84205081  0.14378534    -0.27000
C212        C  0.47783331  0.82731687  0.16273292    -0.02200
C213        C  0.47042861  0.79424676  0.15901813     0.06400
C214        C  0.46611912  0.79018415  0.13696108     0.04500
H215        H  0.48288461  0.83990856  0.17812012     0.09600
H216        H  0.45939911  0.76735143  0.12788601     0.08400
N217        N  0.46173178  0.57940101  0.21233093    -0.26000
N218        N  0.44104040  0.55912267  0.22796632    -0.33800
C219        C  0.44667012  0.53379892  0.23207435     0.02400
C220        C  0.47213687  0.53800548  0.21844122     0.08400
C221        C  0.48115346  0.56717950  0.20594312    -0.04700
H222        H  0.43526562  0.51548788  0.24536342     0.09100
H223        H  0.50218917  0.58023216  0.19450220     0.10300
Cu224      Cu  0.41338599  0.57158317  0.24728546     0.44200
Cu225      Cu  0.46513401  0.62553432  0.20419862     0.42000
Cu226      Cu  0.43095604  0.65764737  0.24540929     0.43900
N227        N  0.40216295  0.59276268  0.27225453    -0.33400
N228        N  0.40964058  0.62500172  0.27230331    -0.27600
C229        C  0.40405046  0.63214591  0.29220184    -0.03700
C230        C  0.39298794  0.60307665  0.30525398     0.08500
C231        C  0.39188832  0.57858753  0.29191215     0.02300
H232        H  0.40955753  0.65724393  0.29712384     0.09900
H233        H  0.38596075  0.55294889  0.29626758     0.09000
N234        N  0.45080221  0.68127915  0.21551090    -0.34800
N235        N  0.46236747  0.66940098  0.20083025    -0.27000
C236        C  0.47083786  0.68944656  0.18304920    -0.02200
C237        C  0.46460325  0.71525647  0.18660500     0.06400
C238        C  0.45195399  0.70936204  0.20738964     0.04500
H239        H  0.48025639  0.68511061  0.16838236     0.09600
H240        H  0.44301802  0.72355340  0.21575958     0.08400
N241        N  0.59003285  0.14620781  0.14853557    -0.26000
N242        N  0.60957893  0.14502293  0.13367230    -0.33800
C243        C  0.60115416  0.11216285  0.13184174     0.02400
C244        C  0.57481392  0.09134973  0.14621448     0.08400
C245        C  0.56866013  0.11386752  0.15679067    -0.04700
H246        H  0.61118312  0.10357171  0.11953633     0.09100
H247        H  0.54785032  0.10670534  0.16794917     0.10300
Cu248      Cu  0.63833213  0.18479735  0.11195803     0.44200
Cu249      Cu  0.58947222  0.19085450  0.15248929     0.42000
Cu250      Cu  0.62412606  0.25436295  0.10688887     0.43900
N251        N  0.64863255  0.21420502  0.08440895    -0.33400
N252        N  0.64240053  0.23900687  0.08177741    -0.27600
C253        C  0.64647948  0.24838481  0.06081251    -0.03700
C254        C  0.65544184  0.22814122  0.04995105     0.08500
C255        C  0.65658163  0.20698148  0.06543997     0.02300
H256        H  0.64121061  0.26685223  0.05387745     0.09900
H257        H  0.66055577  0.18608400  0.06287288     0.09000
N258        N  0.60544765  0.26104912  0.13558087    -0.34800
N259        N  0.59359205  0.23840178  0.15180312    -0.27000
C260        C  0.58579530  0.25162858  0.16819985    -0.02200
C261        C  0.59277019  0.28394687  0.16212875     0.06400
C262        C  0.60517144  0.28917581  0.14131396     0.04500
H263        H  0.57640216  0.23889434  0.18365638     0.09600
H264        H  0.61457386  0.31219060  0.13136373     0.08400
N265        N  0.55134646  0.46840892  0.21075991    -0.26000
N266        N  0.55105077  0.47568633  0.23118294    -0.33800
C267        C  0.53784298  0.49542328  0.23281503     0.02400
C268        C  0.52921947  0.50096737  0.21246602     0.08400
C269        C  0.53845538  0.48374336  0.19879536    -0.04700
H270        H  0.53431563  0.50460864  0.24784413     0.09100
H271        H  0.53471445  0.48129961  0.18157815     0.10300
Cu272      Cu  0.56671865  0.45760937  0.25658643     0.44200
Cu273      Cu  0.56682274  0.43544767  0.20106416     0.42000
Cu274      Cu  0.59713931  0.40314815  0.24529184     0.43900
N275        N  0.58379928  0.43818694  0.28034207    -0.33400
N276        N  0.59637991  0.41893800  0.27622774    -0.27600
C277        C  0.60591464  0.41100699  0.29485482    -0.03700
C278        C  0.59838908  0.42554652  0.31147188     0.08500
C279        C  0.58443572  0.44263312  0.30165055     0.02300
H280        H  0.61661823  0.39507072  0.29624306     0.09900
H281        H  0.57561678  0.45744015  0.30937180     0.09000
N282        N  0.59134122  0.38782196  0.21347493    -0.34800
N283        N  0.58099957  0.39952914  0.19748249    -0.27000
C284        C  0.57988413  0.38336748  0.17929444    -0.02200
C285        C  0.58949902  0.36014958  0.18413358     0.06400
C286        C  0.59668637  0.36379933  0.20593212     0.04500
H287        H  0.57189204  0.38763011  0.16377531     0.09600
H288        H  0.60523650  0.35008460  0.21569792     0.08400
C289        C  0.59030933  0.30805697  0.17629526    -0.15100
C290        C  0.59132215  0.33643997  0.16914318    -0.30300
H291        H  0.58681281  0.30158958  0.19330934     0.13900
H292        H  0.59254999  0.34189942  0.15203505     0.14500
C293        C  0.49007255  0.51955474  0.22134461    -0.15100
C294        C  0.51150237  0.51918282  0.20702552    -0.30300
H295        H  0.48475015  0.50494137  0.23628331     0.13900
H296        H  0.51520137  0.53125014  0.19129368     0.14500
C297        C  0.54533301  0.03584991  0.12751358    -0.15100
C298        C  0.55252512  0.05283671  0.14617133    -0.30300
H299        H  0.55512937  0.05073391  0.11263565     0.13900
H300        H  0.54041486  0.03872349  0.16097977     0.14500
C301        C  0.46834941  0.74119462  0.17049806    -0.15100
C302        C  0.46707744  0.76891975  0.17549730    -0.30300
H303        H  0.47294539  0.73752184  0.15399995     0.13900
H304        H  0.46441700  0.77378636  0.19213346     0.14500
C305        C  0.65800665  0.24507028  0.01133954    -0.15100
C306        C  0.65801280  0.22418567  0.02673675    -0.30300
H307        H  0.65791903  0.26793621  0.01554419     0.13900
H308        H  0.66002347  0.20254902  0.02223253     0.14500
C309        C  0.76308349  0.35202450  0.84621068    -0.15100
C310        C  0.73544439  0.32029151  0.84114943    -0.30300
H311        H  0.77082892  0.35830933  0.86290665     0.13900
H312        H  0.72913781  0.31298894  0.82442056     0.14500
C313        C  0.03742163  0.58918667  0.80329087    -0.15100
C314        C  0.01326733  0.59126165  0.79222164    -0.30300
H315        H  0.02990522  0.57057497  0.81642570     0.13900
H316        H  0.02165875  0.61100243  0.77969427     0.14500
C317        C  0.45329407  0.82481936  0.99434604    -0.15100
C318        C  0.46607723  0.85351240  0.00633224    -0.30300
H319        H  0.43754370  0.79904557  0.00161503     0.13900
H320        H  0.47898674  0.87889300  0.99842958     0.14500
C321        C  0.56877203  0.02419303  0.88057370    -0.15100
C322        C  0.58514522  0.04328157  0.89810063    -0.30300
H323        H  0.56838384  0.03690209  0.86581135     0.13900
H324        H  0.58407081  0.03020870  0.91300970     0.14500
C325        C  0.35120721  0.76407292  0.82686778    -0.15100
C326        C  0.32037924  0.73531619  0.83223129    -0.30300
H327        H  0.35602902  0.77332697  0.81033489     0.13900
H328        H  0.31486553  0.72716575  0.84894216     0.14500
C329        C  0.38651749  0.57474167  0.34045948    -0.15100
C330        C  0.38807032  0.60061046  0.32886864    -0.30300
H331        H  0.38858592  0.55508650  0.33246849     0.13900
H332        H  0.38769463  0.62128402  0.33687601     0.14500
C333        C  0.28788112  0.60551650  0.49820198    -0.15100
C334        C  0.31774471  0.60905112  0.50462734    -0.30300
H335        H  0.27984764  0.59995713  0.48150382     0.11500
H336        H  0.32473969  0.61242087  0.52153372     0.14500
C337        C  0.22534790  0.67242482  0.65499513    -0.15100
C338        C  0.20067242  0.67096971  0.66727852    -0.30300
H339        H  0.24937790  0.67768437  0.66223923     0.13900
H340        H  0.17642758  0.66491015  0.65999444     0.14500
C341        C  0.48119342  0.48052811  0.46272244    -0.15100
C342        C  0.48297854  0.50664975  0.47351325    -0.30300
H343        H  0.46067448  0.46654483  0.45088234     0.13900
H344        H  0.50220702  0.52003143  0.48612572     0.14500
C345        C  0.58274377  0.42395013  0.34914744    -0.15100
C346        C  0.60360769  0.42289243  0.33473248    -0.30300
H347        H  0.56092618  0.42520183  0.34355632     0.13900
H348        H  0.62372705  0.41872405  0.33998436     0.14500
C349        C  0.00372707  0.53495939  0.55711860    -0.15100
C350        C  0.02362923  0.54266096  0.53960875    -0.30300
H351        H  0.01617829  0.54247173  0.57278758     0.13900
H352        H  0.01170975  0.53293121  0.52398551     0.14500
C353        C  0.74731569  0.48221876  0.50253607    -0.15100
C354        C  0.71958864  0.48320035  0.50796989    -0.30300
H355        H  0.75378826  0.48306329  0.48574016     0.13900
H356        H  0.71429202  0.48429077  0.52477508     0.14500
C357        C  0.80268333  0.44733034  0.66996111    -0.15100
C358        C  0.82919048  0.47024551  0.68251658    -0.30300
H359        H  0.77671645  0.43045583  0.67649614     0.13900
H360        H  0.85418661  0.48900649  0.67526548     0.14500
loop_ 
_geom_bond_atom_site_label_1 
_geom_bond_atom_site_label_2 
_geom_bond_distance 
_geom_bond_site_symmetry_2 
_ccdc_geom_bond_type 
N1            N2   1.321       .  A
N1            C5   1.354       .  A
N1           Cu9   2.097       .  S
N2            C3   1.339       .  A
N2           Cu8   2.060       .  S
C3            C4   1.377       .  A
C3            H6   1.082       .  S
C4            C5   1.392       .  A
C4          C349   1.477   1_655  S
C5            H7   1.082       .  S
Cu8          N11   2.060       .  S
Cu9          N19   2.099       .  S
Cu10         N12   2.075       .  S
Cu10         N18   2.078       .  S
N11          N12   1.320       .  A
N11          C15   1.341       .  A
N12          C13   1.349       .  A
C13          C14   1.385       .  A
C13          H16   1.082       .  S
C14          C15   1.383       .  A
C14         C357   1.476       .  S
C15          H17   1.082       .  S
N18          N19   1.326       .  A
N18          C22   1.345       .  A
N19          C20   1.348       .  A
C20          C21   1.384       .  A
C20          H23   1.082       .  S
C21          C22   1.383       .  A
C21         C353   1.480       .  S
C22          H24   1.082       .  S
N25          N26   1.320       .  A
N25          C29   1.353       .  A
N25         Cu33   2.089       .  S
N26          C27   1.339       .  A
N26         Cu32   2.056       .  S
C27          C28   1.378       .  A
C27          H30   1.082       .  S
C28          C29   1.392       .  A
C28         C341   1.477       .  S
C29          H31   1.082       .  S
Cu32         N35   2.057       .  S
Cu33         N43   2.092       .  S
Cu34         N36   2.085       .  S
Cu34         N42   2.087       .  S
N35          N36   1.320       .  A
N35          C39   1.341       .  A
N36          C37   1.351       .  A
C37          C38   1.390       .  A
C37          H40   1.082       .  S
C38          C39   1.378       .  A
C38         C345   1.475       .  S
C39          H41   1.082       .  S
N42          N43   1.326       .  A
N42          C46   1.347       .  A
N43          C44   1.346       .  A
C44          C45   1.383       .  A
C44          H47   1.082       .  S
C45          C46   1.385       .  A
C45         C354   1.480       .  S
C46          H48   1.082       .  S
N49          N50   1.320       .  A
N49          C53   1.352       .  A
N49         Cu57   2.094       .  S
N50          C51   1.341       .  A
N50         Cu56   2.062       .  S
C51          C52   1.384       .  A
C51          H54   1.082       .  S
C52          C53   1.390       .  A
C52         C350   1.487       .  S
C53          H55   1.082       .  S
Cu56         N59   2.062       .  S
Cu57         N67   2.096       .  S
Cu58         N60   2.086       .  S
Cu58         N66   2.087       .  S
N59          N60   1.320       .  A
N59          C63   1.340       .  A
N60          C61   1.350       .  A
C61          C62   1.389       .  A
C61          H64   1.082       .  S
C62          C63   1.386       .  A
C62         C337   1.486       .  S
C63          H65   1.081       .  S
N66          N67   1.326       .  A
N66          C70   1.347       .  A
N67          C68   1.347       .  A
C68          C69   1.383       .  A
C68          H71   1.082       .  S
C69          C70   1.385       .  A
C69         C333   1.481       .  S
C70          H72   1.082       .  S
N73          N74   1.321       .  A
N73          C77   1.351       .  A
N73         Cu81   2.089       .  S
N74          C75   1.341       .  A
N74         Cu80   2.066       .  S
C75          C76   1.385       .  A
C75          H78   1.082       .  S
C76          C77   1.388       .  A
C76         C342   1.485       .  S
C77          H79   1.082       .  S
Cu80         N83   2.066       .  S
Cu81         N91   2.090       .  S
Cu82         N84   2.080       .  S
Cu82         N90   2.083       .  S
N83          N84   1.321       .  A
N83          C87   1.342       .  A
N84          C85   1.350       .  A
C85          C86   1.388       .  A
C85          H88   1.081       .  S
C86          C87   1.380       .  A
C86         C329   1.476       .  S
C87          H89   1.082       .  S
N90          N91   1.325       .  A
N90          C94   1.346       .  A
N91          C92   1.347       .  A
C92          C93   1.383       .  A
C92          H95   1.082       .  S
C93          C94   1.385       .  A
C93         C334   1.481       .  S
C94          H96   1.082       .  S
N97          N98   1.320       .  A
N97         C101   1.352       .  A
N97        Cu105   2.091       .  S
N98          C99   1.340       .  A
N98        Cu104   2.059       .  S
C99         C100   1.386       .  A
C99         H102   1.081       .  S
C100        C101   1.391       .  A
C100        C321   1.489   1_565  S
C101        H103   1.082       .  S
Cu104       N107   2.059       .  S
Cu105       N115   2.094       .  S
Cu106       N108   2.088       .  S
Cu106       N114   2.090       .  S
N107        N108   1.321       .  A
N107        C111   1.340       .  A
N108        C109   1.351       .  A
C109        C110   1.388       .  A
C109        H112   1.082       .  S
C110        C111   1.383       .  A
C110        C317   1.482       .  S
C111        H113   1.082       .  S
N114        N115   1.326       .  A
N114        C118   1.347       .  A
N115        C116   1.347       .  A
C116        C117   1.383       .  A
C116        H119   1.082       .  S
C117        C118   1.386       .  A
C117        C325   1.483       .  S
C118        H120   1.081       .  S
N121        N122   1.320       .  A
N121        C125   1.351       .  A
N121       Cu129   2.086       .  S
N122        C123   1.341       .  A
N122       Cu128   2.065       .  S
C123        C124   1.386       .  A
C123        H126   1.081       .  S
C124        C125   1.389       .  A
C124        C313   1.485       .  S
C125        H127   1.082       .  S
Cu128       N131   2.065       .  S
Cu129       N139   2.087       .  S
Cu130       N132   2.088       .  S
Cu130       N138   2.091       .  S
N131        N132   1.322       .  A
N131        C135   1.340       .  A
N132        C133   1.352       .  A
C133        C134   1.390       .  A
C133        H136   1.081       .  S
C134        C135   1.379       .  A
C134        C338   1.477       .  S
C135        H137   1.082       .  S
N138        N139   1.326       .  A
N138        C142   1.349       .  A
N139        C140   1.345       .  A
C140        C141   1.381       .  A
C140        H143   1.082       .  S
C141        C142   1.387       .  A
C141        C326   1.481       .  S
C142        H144   1.082       .  S
N145        N146   1.321       .  A
N145        C149   1.353       .  A
N145       Cu153   2.093       .  S
N146        C147   1.339       .  A
N146       Cu152   2.057       .  S
C147        C148   1.378       .  A
C147        H150   1.082       .  S
C148        C149   1.392       .  A
C148        C314   1.478   1_655  S
C149        H151   1.082       .  S
Cu152       N155   2.059       .  S
Cu153       N163   2.095       .  S
Cu154       N156   2.081       .  S
Cu154       N162   2.083       .  S
N155        N156   1.321       .  A
N155        C159   1.341       .  A
N156        C157   1.349       .  A
C157        C158   1.387       .  A
C157        H160   1.082       .  S
C158        C159   1.378       .  A
C158        C358   1.471       .  S
C159        H161   1.082       .  S
N162        N163   1.326       .  A
N162        C166   1.347       .  A
N163        C164   1.346       .  A
C164        C165   1.383       .  A
C164        H167   1.082       .  S
C165        C166   1.385       .  A
C165        C309   1.480       .  S
C166        H168   1.082       .  S
N169        N170   1.321       .  A
N169        C173   1.353       .  A
N169       Cu177   2.094       .  S
N170        C171   1.339       .  A
N170       Cu176   2.059       .  S
C171        C172   1.378       .  A
C171        H174   1.082       .  S
C172        C173   1.391       .  A
C172        C322   1.478       .  S
C173        H175   1.082       .  S
Cu176       N179   2.058       .  S
Cu177       N187   2.096       .  S
Cu178       N180   2.082       .  S
Cu178       N186   2.085       .  S
N179        N180   1.320       .  A
N179        C183   1.340       .  A
N180        C181   1.350       .  A
C181        C182   1.388       .  A
C181        H184   1.082       .  S
C182        C183   1.384       .  A
C182        C305   1.482   1_556  S
C183        H185   1.081       .  S
N186        N187   1.326       .  A
N186        C190   1.346       .  A
N187        C188   1.348       .  A
C188        C189   1.383       .  A
C188        H191   1.082       .  S
C189        C190   1.384       .  A
C189        C310   1.481       .  S
C190        H192   1.082       .  S
N193        N194   1.321       .  A
N193        C197   1.350       .  A
N193       Cu201   2.081       .  S
N194        C195   1.340       .  A
N194       Cu200   2.057       .  S
C195        C196   1.378       .  A
C195        H198   1.082       .  S
C196        C197   1.388       .  A
C196        C297   1.471   1_565  S
C197        H199   1.082       .  S
Cu200       N203   2.057       .  S
Cu201       N211   2.084       .  S
Cu202       N204   2.090       .  S
Cu202       N210   2.093       .  S
N203        N204   1.321       .  A
N203        C207   1.339       .  A
N204        C205   1.352       .  A
C205        C206   1.390       .  A
C205        H208   1.082       .  S
C206        C207   1.377       .  A
C206        C318   1.474       .  S
C207        H209   1.082       .  S
N210        N211   1.326       .  A
N210        C214   1.347       .  A
N211        C212   1.346       .  A
C212        C213   1.382       .  A
C212        H215   1.082       .  S
C213        C214   1.387       .  A
C213        C302   1.481       .  S
C214        H216   1.082       .  S
N217        N218   1.320       .  A
N217        C221   1.352       .  A
N217       Cu225   2.086       .  S
N218        C219   1.339       .  A
N218       Cu224   2.059       .  S
C219        C220   1.378       .  A
C219        H222   1.082       .  S
C220        C221   1.390       .  A
C220        C293   1.475       .  S
C221        H223   1.082       .  S
Cu224       N227   2.059       .  S
Cu225       N235   2.088       .  S
Cu226       N228   2.088       .  S
Cu226       N234   2.091       .  S
N227        N228   1.320       .  A
N227        C231   1.341       .  A
N228        C229   1.350       .  A
C229        C230   1.389       .  A
C229        H232   1.082       .  S
C230        C231   1.385       .  A
C230        C330   1.484       .  S
C231        H233   1.081       .  S
N234        N235   1.326       .  A
N234        C238   1.348       .  A
N235        C236   1.345       .  A
C236        C237   1.381       .  A
C236        H239   1.082       .  S
C237        C238   1.387       .  A
C237        C301   1.480       .  S
C238        H240   1.082       .  S
N241        N242   1.319       .  A
N241        C245   1.349       .  A
N241       Cu249   2.077       .  S
N242        C243   1.340       .  A
N242       Cu248   2.056       .  S
C243        C244   1.383       .  A
C243        H246   1.082       .  S
C244        C245   1.386       .  A
C244        C298   1.478       .  S
C245        H247   1.082       .  S
Cu248       N251   2.057       .  S
Cu249       N259   2.080       .  S
Cu250       N252   2.088       .  S
Cu250       N258   2.090       .  S
N251        N252   1.322       .  A
N251        C255   1.339       .  A
N252        C253   1.351       .  A
C253        C254   1.389       .  A
C253        H256   1.081       .  S
C254        C255   1.377       .  A
C254        C306   1.474       .  S
C255        H257   1.082       .  S
N258        N259   1.325       .  A
N258        C262   1.349       .  A
N259        C260   1.343       .  A
C260        C261   1.380       .  A
C260        H263   1.082       .  S
C261        C262   1.386       .  A
C261        C289   1.477       .  S
C262        H264   1.082       .  S
N265        N266   1.322       .  A
N265        C269   1.351       .  A
N265       Cu273   2.088       .  S
N266        C267   1.341       .  A
N266       Cu272   2.070       .  S
C267        C268   1.384       .  A
C267        H270   1.082       .  S
C268        C269   1.387       .  A
C268        C294   1.482       .  S
C269        H271   1.082       .  S
Cu272       N275   2.070       .  S
Cu273       N283   2.089       .  S
Cu274       N276   2.076       .  S
Cu274       N282   2.078       .  S
N275        N276   1.320       .  A
N275        C279   1.344       .  A
N276        C277   1.348       .  A
C277        C278   1.384       .  A
C277        H280   1.082       .  S
C278        C279   1.385       .  A
C278        C346   1.479       .  S
C279        H281   1.082       .  S
N282        N283   1.324       .  A
N282        C286   1.344       .  A
N283        C284   1.348       .  A
C284        C285   1.384       .  A
C284        H287   1.082       .  S
C285        C286   1.384       .  A
C285        C290   1.480       .  S
C286        H288   1.082       .  S
C289        C290   1.344       .  D
C289        H291   1.086       .  S
C290        H292   1.086       .  S
C293        C294   1.343       .  D
C293        H295   1.087       .  S
C294        H296   1.086       .  S
C297        C298   1.343       .  D
C297        H299   1.087       .  S
C298        H300   1.086       .  S
C301        C302   1.344       .  D
C301        H303   1.086       .  S
C302        H304   1.086       .  S
C305        C306   1.344       .  D
C305        H307   1.086       .  S
C306        H308   1.086       .  S
C309        C310   1.345       .  D
C309        H311   1.086       .  S
C310        H312   1.086       .  S
C313        C314   1.344       .  D
C313        H315   1.086       .  S
C314        H316   1.086       .  S
C317        C318   1.344   1_556  D
C317        H319   1.086   1_556  S
C318        H320   1.087   1_554  S
C321        C322   1.346       .  D
C321        H323   1.086       .  S
C322        H324   1.084       .  S
C325        C326   1.345       .  D
C325        H327   1.086       .  S
C326        H328   1.085       .  S
C329        C330   1.346       .  D
C329        H331   1.084       .  S
C330        H332   1.086       .  S
C333        C334   1.346       .  D
C333        H335   1.086       .  S
C334        H336   1.086       .  S
C337        C338   1.346       .  D
C337        H339   1.086       .  S
C338        H340   1.084       .  S
C341        C342   1.344       .  D
C341        H343   1.086       .  S
C342        H344   1.086       .  S
C345        C346   1.342       .  D
C345        H347   1.087       .  S
C346        H348   1.086       .  S
C349        C350   1.345       .  D
C349        H351   1.086       .  S
C350        H352   1.086       .  S
C353        C354   1.346       .  D
C353        H355   1.086       .  S
C354        H356   1.086       .  S
C357        C358   1.342       .  D
C357        H359   1.086       .  S
C358        H360   1.087       .  S
