geometry optimzed in LAMMPS
_audit_creation_date              2020-12-01 
_audit_creation_method            'lammps2cif' 
_symmetry_space_group_name_H-M    'P1' 
_symmetry_Int_Tables_number       1 
_symmetry_cell_setting            triclinic 
loop_ 
_symmetry_equiv_pos_as_xyz 
  x,y,z 
_cell_length_a                    29.27830718 
_cell_length_b                    29.356198318355982 
_cell_length_c                    56.121633187301036 
_cell_angle_alpha                 90.12122460651442 
_cell_angle_beta                  89.9094040863967 
_cell_angle_gamma                 120.12703098198925 
loop_ 
_atom_site_label 
_atom_site_type_symbol 
_atom_site_fract_x 
_atom_site_fract_y 
_atom_site_fract_z 
_atom_site_charge 
O1          O  0.49090897  0.06360566  0.97530623    -0.73400
O2          O  0.42868589  0.94482406  0.02392423    -0.74400
O3          O  0.48408789  0.05694602  0.02581335    -0.63000
O4          O  0.43329635  0.95224601  0.97368838    -0.71400
O5          O  0.50810797  0.95062620  0.97307311    -0.71000
O6          O  0.55993325  0.05752860  0.02771885    -0.62200
O7          O  0.50451505  0.94507441  0.02356404    -0.74700
O8          O  0.56594971  0.06248116  0.97717582    -0.73500
Cu9        Cu  0.45671248  0.00446740  0.99970296     1.04600
Cu10       Cu  0.53731675  0.00395847  0.00046305     1.04300
C11         C  0.53880979  0.08156100  0.96862128     0.92800
C12         C  0.45711537  0.92552819  0.03091191     0.91900
C13         C  0.52959747  0.07445222  0.03507944     0.84100
C14         C  0.46154393  0.93457750  0.96493080     0.90400
N15         N  0.34917409  0.73116109  0.85661883    -0.27700
N16         N  0.30409986  0.72833061  0.86245802    -0.35600
C17         C  0.31222464  0.76004108  0.88115147     0.00600
C18         C  0.36514043  0.78443226  0.88756639     0.06600
C19         C  0.38732139  0.76498310  0.87150230    -0.06500
H20         H  0.28113700  0.76374940  0.88968464     0.07300
H21         H  0.42800233  0.77424472  0.87072656     0.08500
Cu22       Cu  0.23183562  0.67857962  0.84648635     0.44200
Cu23       Cu  0.35495745  0.68624984  0.82950171     0.42000
Cu24       Cu  0.22711363  0.57800629  0.80900983     0.43900
N25         N  0.16162273  0.61698564  0.83334180    -0.35100
N26         N  0.15942786  0.57771837  0.82084685    -0.29400
C27         C  0.10839422  0.54166063  0.81679758    -0.05500
C28         C  0.07716854  0.55964012  0.82697867     0.06700
C29         C  0.11224122  0.60764447  0.83712799     0.00500
H30         H  0.09506582  0.50564982  0.80677217     0.08200
H31         H  0.10253479  0.63324794  0.84709376     0.07300
N32         N  0.30037514  0.59265735  0.79645773    -0.36600
N33         N  0.34638488  0.63248270  0.80336203    -0.28800
C34         C  0.38523581  0.63196699  0.79072077    -0.04000
C35         C  0.36278022  0.58961958  0.77514423     0.04600
C36         C  0.30888396  0.56562566  0.77935676     0.02700
H37         H  0.42676095  0.66040910  0.79279037     0.07800
H38         H  0.27779968  0.53185577  0.77018348     0.06600
N39         N  0.65739680  0.28481559  0.86129160    -0.27700
N40         N  0.70318522  0.29273880  0.86937315    -0.35600
C41         C  0.69489974  0.26440850  0.88927732     0.00600
C42         C  0.64113822  0.23688754  0.89414556     0.06600
C43         C  0.61864915  0.25097435  0.87589840    -0.06500
H44         H  0.72625457  0.26428980  0.89935000     0.07300
H45         H  0.57723416  0.23760900  0.87326237     0.08500
Cu46       Cu  0.77606315  0.34252179  0.85395905     0.44200
Cu47       Cu  0.65045774  0.32137632  0.83101804     0.42000
Cu48       Cu  0.77753054  0.42599246  0.80798450     0.43900
N49         N  0.84560315  0.40094586  0.83883056    -0.35100
N50         N  0.84644995  0.43420122  0.82277122    -0.29400
C51         C  0.89705375  0.46921614  0.81731622    -0.05500
C52         C  0.92945379  0.45674248  0.83036661     0.06700
C53         C  0.89547420  0.41307171  0.84366770     0.00500
H54         H  0.90926104  0.50025362  0.80425363     0.08200
H55         H  0.90622988  0.39198938  0.85614394     0.07300
N56         N  0.70414942  0.40514424  0.79343709    -0.36600
N57         N  0.65825917  0.36706701  0.80143500    -0.28800
C58         C  0.61931126  0.36414921  0.78760223    -0.04000
C59         C  0.64163723  0.40231654  0.77001048     0.04600
C60         C  0.69557456  0.42736413  0.77435926     0.02700
H61         H  0.57778524  0.33672779  0.79045734     0.07800
H62         H  0.72675176  0.45934971  0.76438746     0.06600
O63         O  0.05433547  0.56491822  0.30639328    -0.73400
O64         O  0.94590946  0.50861461  0.36023185    -0.74400
O65         O  0.05743895  0.56657127  0.35688471    -0.63000
O66         O  0.94192727  0.50921606  0.30964323    -0.71400
O67         O  0.94182953  0.43374714  0.30797269    -0.71000
O68         O  0.05958496  0.49220345  0.35751298    -0.62200
O69         O  0.94810455  0.43435040  0.35837108    -0.74700
O70         O  0.05413331  0.48936431  0.30693161    -0.73500
Cu71       Cu  0.99986302  0.53994505  0.33325566     1.04600
Cu72       Cu  0.00091752  0.45982142  0.33262261     1.04300
C73         C  0.07169367  0.53542852  0.29846107     0.92800
C74         C  0.93044843  0.46192875  0.36782717     0.91900
C75         C  0.07674275  0.53932480  0.36500686     0.84100
C76         C  0.92298577  0.46277918  0.30131435     0.90400
N77         N  0.70065248  0.36156392  0.20155112    -0.27700
N78         N  0.68629331  0.39223282  0.21256269    -0.35600
C79         C  0.71670059  0.41331666  0.23191165     0.00600
C80         C  0.75214475  0.39514767  0.23329549     0.06600
C81         C  0.74054652  0.36214309  0.21373909    -0.06500
H82         H  0.71344591  0.44046705  0.24387851     0.07300
H83         H  0.76072251  0.34147525  0.20826609     0.08500
Cu84       Cu  0.62840920  0.40732542  0.20035415     0.44200
Cu85       Cu  0.66687453  0.32298061  0.16977197     0.42000
Cu86       Cu  0.57303947  0.35560033  0.14285945     0.43900
N87         N  0.57465427  0.42302319  0.18373044    -0.35100
N88         N  0.55579518  0.40590948  0.16213527    -0.29400
C89         C  0.52386764  0.42470523  0.15602294    -0.05500
C90         C  0.52236982  0.45473830  0.17481232     0.06700
C91         C  0.55477832  0.45249964  0.19207415     0.00500
H92         H  0.50268713  0.41633854  0.13933395     0.08200
H93         H  0.56391107  0.47158807  0.20932368     0.07300
N94         N  0.59139429  0.30076704  0.12894219    -0.36600
N95         N  0.62553630  0.28915608  0.13853942    -0.28800
C96         C  0.62636495  0.25090043  0.12557563    -0.04000
C97         C  0.59066696  0.23728698  0.10700710     0.04600
C98         C  0.56938435  0.26991384  0.10975074     0.02700
H99         H  0.64987739  0.23306064  0.12989905     0.07800
H100        H  0.53957521  0.27090689  0.09876984     0.06600
N101        N  0.28600878  0.63558450  0.19482008    -0.27700
N102        N  0.29886647  0.60264367  0.20464503    -0.35600
C103        C  0.26914929  0.58143957  0.22417333     0.00600
C104        C  0.23582476  0.60186258  0.22692029     0.06600
C105        C  0.24793065  0.63641918  0.20802358    -0.06500
H106        H  0.27103043  0.55232235  0.23524890     0.07300
H107        H  0.22879533  0.65862828  0.20353554     0.08500
Cu108      Cu  0.35267109  0.58333266  0.19052928     0.44200
Cu109      Cu  0.31724406  0.67377718  0.16269304     0.42000
Cu110      Cu  0.39830913  0.63071904  0.13167451     0.43900
N111        N  0.40130158  0.56373238  0.17146202    -0.35100
N112        N  0.41637951  0.57976529  0.14936752    -0.29400
C113        C  0.44517465  0.55890053  0.14126785    -0.05500
C114        C  0.44897288  0.52873640  0.15918009     0.06700
C115        C  0.42065025  0.53263833  0.17813449     0.00500
H116        H  0.46250500  0.56558905  0.12366964     0.08200
H117        H  0.41361948  0.51348735  0.19528351     0.07300
N118        N  0.38181905  0.68703447  0.11864084    -0.36600
N119        N  0.35274945  0.70315693  0.12987062    -0.28800
C120        C  0.35303885  0.74225914  0.11724554    -0.04000
C121        C  0.38413127  0.75154894  0.09713909     0.04600
C122        C  0.40145321  0.71547015  0.09866872     0.02700
H123        H  0.33390931  0.76382104  0.12290232     0.07800
H124        H  0.42760976  0.71089360  0.08654352     0.06600
O125        O  0.49052117  0.42991511  0.69073133    -0.73400
O126        O  0.43021045  0.48850397  0.64156024    -0.74400
O127        O  0.48548147  0.43176816  0.64017415    -0.63000
O128        O  0.43207809  0.48318178  0.69229640    -0.71400
O129        O  0.50679856  0.55981353  0.69312886    -0.71000
O130        O  0.56198103  0.50664281  0.63941022    -0.62200
O131        O  0.50680568  0.56319779  0.64253659    -0.74700
O132        O  0.56502665  0.50670602  0.68979493    -0.73500
Cu133      Cu  0.45690283  0.45569445  0.66616345     1.04600
Cu134      Cu  0.53769096  0.53671626  0.66619592     1.04300
C135        C  0.53806955  0.46007768  0.69791114     0.92800
C136        C  0.46008723  0.53598165  0.63438006     0.91900
C137        C  0.53166995  0.45983762  0.63155730     0.84100
C138        C  0.46025856  0.52893223  0.70124111     0.90400
N139        N  0.73019425  0.34498592  0.47672001    -0.27700
N140        N  0.72573966  0.30004266  0.46957858    -0.35600
C141        C  0.75726883  0.30919123  0.45069597     0.00600
C142        C  0.78307322  0.36262145  0.44557392     0.06600
C143        C  0.76475677  0.38407748  0.46250425    -0.06500
H144        H  0.75991139  0.27861193  0.44111422     0.07300
H145        H  0.77552249  0.42493828  0.46440190     0.08500
Cu146      Cu  0.67453249  0.22724203  0.48436982     0.44200
Cu147      Cu  0.68730585  0.34972151  0.50488715     0.42000
Cu148      Cu  0.57966164  0.22263946  0.52595157     0.43900
N149        N  0.61339320  0.15739807  0.49773501    -0.35100
N150        N  0.57630078  0.15531910  0.51191072    -0.29400
C151        C  0.54045558  0.10446770  0.51616746    -0.05500
C152        C  0.55639122  0.07329809  0.50434229     0.06700
C153        C  0.60289198  0.10812848  0.49299769     0.00500
H154        H  0.50627218  0.09122885  0.52756636     0.08200
H155        H  0.62689475  0.09838768  0.48179307     0.07300
N156        N  0.59733248  0.29565664  0.53972331    -0.36600
N157        N  0.63682012  0.34138560  0.53243271    -0.28800
C158        C  0.63754180  0.38038709  0.54535012    -0.04000
C159        C  0.59629532  0.35832123  0.56151133     0.04600
C160        C  0.57177139  0.30447506  0.55742258     0.02700
H161        H  0.66543415  0.42179632  0.54274700     0.07800
H162        H  0.53798244  0.27369882  0.56670600     0.06600
N163        N  0.28045294  0.65546514  0.47263407    -0.27700
N164        N  0.28759104  0.70105011  0.46489568    -0.35600
C165        C  0.25864704  0.69289746  0.44519837     0.00600
C166        C  0.23145293  0.63939283  0.44011615     0.06600
C167        C  0.24645971  0.61690043  0.45797824    -0.06500
H168        H  0.25810457  0.72419774  0.43533924     0.07300
H169        H  0.23344563  0.57560796  0.46034905     0.08500
Cu170      Cu  0.33732442  0.77343862  0.48039450     0.44200
Cu171      Cu  0.31822929  0.64897437  0.50260440     0.42000
Cu172      Cu  0.42377363  0.77547893  0.52542981     0.43900
N173        N  0.39666310  0.84266567  0.49505530    -0.35100
N174        N  0.43108250  0.84381959  0.51059727    -0.29400
C175        C  0.46655416  0.89440187  0.51566197    -0.05500
C176        C  0.45306804  0.92633860  0.50292680     0.06700
C177        C  0.40842154  0.89224130  0.49020473     0.00500
H178        H  0.49856714  0.90692532  0.52828314     0.08200
H179        H  0.38644223  0.90268516  0.47809004     0.07300
N180        N  0.40276501  0.70228428  0.54004199    -0.36600
N181        N  0.36425512  0.65660645  0.53210687    -0.28800
C182        C  0.36131556  0.61764169  0.54584863    -0.04000
C183        C  0.39998042  0.63969553  0.56328783     0.04600
C184        C  0.42528600  0.69352530  0.55898367     0.02700
H185        H  0.33371524  0.57624996  0.54296849     0.07800
H186        H  0.45774578  0.72445176  0.56886837     0.06600
C187        C  0.47841788  0.98426422  0.50357012    -0.16900
C188        C  0.53106181  0.01535302  0.50440038    -0.32100
H189        H  0.45350042  0.00173252  0.50183679     0.12100
H190        H  0.55618920  0.99796385  0.50360320     0.12700
C191        C  0.60064022  0.46236098  0.60358362    -0.13800
C192        C  0.54900584  0.43625292  0.61276358     0.08300
C193        C  0.51325358  0.38527139  0.60444571    -0.13800
C194        C  0.52877031  0.36046829  0.58781187    -0.13800
C195        C  0.58043478  0.38593378  0.57886635     0.08300
C196        C  0.61618656  0.43743136  0.58669657    -0.13800
H197        H  0.62909599  0.50157418  0.60967140     0.12300
H198        H  0.47301427  0.36398125  0.61095928     0.12300
H199        H  0.49992959  0.32128603  0.58188886     0.12300
H200        H  0.65639530  0.45805073  0.58015564     0.12300
C201        C  0.46233580  0.63933834  0.59351227    -0.13800
C202        C  0.41353715  0.61221757  0.58179791     0.08300
C203        C  0.37889753  0.55905209  0.58777753    -0.13800
C204        C  0.39312096  0.53375517  0.60505299    -0.13800
C205        C  0.44234557  0.56115825  0.61652962     0.08300
C206        C  0.47648300  0.61427645  0.61054468    -0.13800
H207        H  0.49042025  0.67994483  0.58931787     0.12300
H208        H  0.34079489  0.53701983  0.57919972     0.12300
H209        H  0.36591544  0.49286131  0.60926984     0.12300
H210        H  0.51477610  0.63685610  0.61894013     0.12300
C211        C  0.49276148  0.48321243  0.17673669    -0.16900
C212        C  0.47662132  0.49832120  0.15746439    -0.32100
H213        H  0.48659082  0.49434148  0.19440147     0.12100
H214        H  0.48622415  0.49050132  0.13978274     0.12700
C215        C  0.87046819  0.46504753  0.39955064    -0.13800
C216        C  0.89253248  0.43830295  0.38778603     0.08300
C217        C  0.87880221  0.38745757  0.39548671    -0.13800
C218        C  0.84387026  0.36365725  0.41426427    -0.13800
C219        C  0.82121617  0.38973196  0.42597290     0.08300
C220        C  0.83506381  0.44092169  0.41854481    -0.13800
H221        H  0.88044668  0.50432919  0.39408006     0.12300
H222        H  0.89524630  0.36566128  0.38704696     0.12300
H223        H  0.83513516  0.32474986  0.41964321     0.12300
H224        H  0.81818633  0.46208248  0.42717429     0.12300
C225        C  0.86092995  0.39677368  0.27113391    -0.13800
C226        C  0.87877331  0.44371674  0.28408423     0.08300
C227        C  0.85412057  0.47369245  0.28037303    -0.13800
C228        C  0.81295901  0.45752024  0.26410370    -0.13800
C229        C  0.79530631  0.41099857  0.25091398     0.08300
C230        C  0.81971753  0.38070456  0.25457577    -0.13800
H231        H  0.87909815  0.37283238  0.27362322     0.12300
H232        H  0.86665674  0.51001640  0.29006657     0.12300
H233        H  0.79569869  0.48223826  0.26162699     0.12300
H234        H  0.80679399  0.34446260  0.24478220     0.12300
C235        C  0.13403808  0.60326590  0.26888128    -0.13800
C236        C  0.11283225  0.55351518  0.27966407     0.08300
C237        C  0.13201144  0.52016380  0.27263619    -0.13800
C238        C  0.17169228  0.53612714  0.25559387    -0.13800
C239        C  0.19329643  0.58581775  0.24488852     0.08300
C240        C  0.17377779  0.61916825  0.25150458    -0.13800
H241        H  0.12013491  0.62984869  0.27392347     0.12300
H242        H  0.11658570  0.48145068  0.28042336     0.12300
H243        H  0.18497848  0.50902141  0.25064642     0.12300
H244        H  0.18980687  0.65778519  0.24355490     0.12300
C245        C  0.14028288  0.61766709  0.38832837    -0.13800
C246        C  0.11857447  0.56378672  0.38336092     0.08300
C247        C  0.13555672  0.53464045  0.39675047    -0.13800
C248        C  0.17269651  0.55899780  0.41511813    -0.13800
C249        C  0.19351924  0.61287867  0.42028843     0.08300
C250        C  0.17703559  0.64176389  0.40645598    -0.13800
H251        H  0.12836629  0.64152558  0.37835529     0.12300
H252        H  0.11946346  0.49302272  0.39335077     0.12300
H253        H  0.18472646  0.53554446  0.42529689     0.12300
H254        H  0.19155872  0.68306718  0.40976026     0.12300
C255        C  0.56056453  0.38136243  0.74575263    -0.13800
C256        C  0.61435029  0.41524026  0.75113966     0.08300
C257        C  0.64225769  0.46254565  0.73843052    -0.13800
C258        C  0.61727220  0.47604919  0.72106837    -0.13800
C259        C  0.56347480  0.44275022  0.71578664     0.08300
C260        C  0.53536511  0.39493718  0.72817253    -0.13800
H261        H  0.53788437  0.34439083  0.75507127     0.12300
H262        H  0.68342224  0.48998511  0.74207099     0.12300
H263        H  0.64038435  0.51320001  0.71189288     0.12300
H264        H  0.49391750  0.36845535  0.72450740     0.12300
C265        C  0.01894945  0.53429283  0.82686581    -0.16900
C266        C  0.98765394  0.48206907  0.82957427    -0.32100
H267        H  0.00157624  0.55940402  0.82615541     0.12100
H268        H  0.00523089  0.45766784  0.83274653     0.12700
C269        C  0.36425915  0.52267301  0.74812130    -0.13800
C270        C  0.38975380  0.57416894  0.75718040     0.08300
C271        C  0.44023499  0.61065929  0.74843571    -0.13800
C272        C  0.46390438  0.59621976  0.73044895    -0.13800
C273        C  0.43758304  0.54496677  0.72099524     0.08300
C274        C  0.38784498  0.50824997  0.73033029    -0.13800
H275        H  0.32588320  0.49330215  0.75474008     0.12300
H276        H  0.46088745  0.65073145  0.75502513     0.12300
H277        H  0.50228568  0.62531685  0.72369743     0.12300
H278        H  0.36662339  0.46816938  0.72372736     0.12300
C279        C  0.39022935  0.86410823  0.06088259    -0.13800
C280        C  0.43602051  0.87981896  0.04725401     0.08300
C281        C  0.46287432  0.85157702  0.04943418    -0.13800
C282        C  0.44521177  0.80939072  0.06516326    -0.13800
C283        C  0.40037243  0.79440372  0.07936504     0.08300
C284        C  0.37274384  0.82195288  0.07692211    -0.13800
H285        H  0.36859464  0.88497546  0.05948516     0.12300
H286        H  0.49798766  0.86223492  0.03900623     0.12300
H287        H  0.46776427  0.78951972  0.06654163     0.12300
H288        H  0.33773976  0.81110778  0.08743196     0.12300
C289        C  0.51169696  0.13339289  0.06068554    -0.13800
C290        C  0.54608551  0.11506801  0.05408683     0.08300
C291        C  0.59546721  0.13679860  0.06541436    -0.11700
C292        C  0.61003481  0.17622280  0.08282306    -0.13800
C293        C  0.57572094  0.19496023  0.08900140     0.08300
C294        C  0.52634990  0.17279808  0.07778998    -0.13800
H295        H  0.47320931  0.11754487  0.05248179     0.12300
H296        H  0.62286506  0.12362553  0.06073389     0.12300
H297        H  0.64846395  0.19264729  0.09112486     0.12300
H298        H  0.49854783  0.18550543  0.08235262     0.12300
C299        C  0.44337275  0.83905135  0.91462708    -0.13800
C300        C  0.39113796  0.82242731  0.90746435     0.08300
C301        C  0.36319730  0.84266473  0.91956547    -0.13800
C302        C  0.38640887  0.87841410  0.93813225    -0.13800
C303        C  0.43853700  0.89548470  0.94530775     0.08300
C304        C  0.46688201  0.87526687  0.93342947    -0.13800
H305        H  0.46607811  0.82411360  0.90580321     0.12300
H306        H  0.32326231  0.83156660  0.91466007     0.12300
H307        H  0.36311590  0.89291342  0.94680859     0.12300
H308        H  0.50707836  0.88757041  0.93856049     0.12300
C309        C  0.53426040  0.13739647  0.93561607    -0.13800
C310        C  0.56400151  0.12407379  0.95069196     0.08300
C311        C  0.61903992  0.14994884  0.94774547    -0.13800
C312        C  0.64376550  0.18707809  0.92979401    -0.13800
C313        C  0.61423526  0.19942608  0.91409157     0.08300
C314        C  0.55914325  0.17464939  0.91742303    -0.13800
H315        H  0.49174998  0.11804209  0.93746021     0.12300
H316        H  0.64326168  0.14098956  0.95918084     0.12300
H317        H  0.68610894  0.20516511  0.92811701     0.12300
H318        H  0.53503412  0.18334078  0.90583220     0.12300
loop_ 
_geom_bond_atom_site_label_1 
_geom_bond_atom_site_label_2 
_geom_bond_distance 
_geom_bond_site_symmetry_2 
_ccdc_geom_bond_type 
O1           Cu9   2.038       .  S
O1           C11   1.282       .  A
O2           Cu9   2.037   1_564  S
O2           C12   1.282       .  A
O3           Cu9   1.979   1_554  S
O3           C13   1.274       .  A
O4           Cu9   1.972   1_565  S
O4           C14   1.274       .  A
O5          Cu10   2.048   1_566  S
O5           C14   1.283       .  A
O6          Cu10   2.049       .  S
O6           C13   1.283       .  A
O7          Cu10   1.982   1_565  S
O7           C12   1.275       .  A
O8          Cu10   1.981   1_556  S
O8           C11   1.275       .  A
Cu9         Cu10   2.368   1_556  S
C11         C310   1.481       .  S
C12         C280   1.481       .  S
C13         C290   1.487       .  S
C14         C303   1.485       .  S
N15          N16   1.321       .  A
N15          C19   1.348       .  A
N15         Cu23   2.073       .  S
N16          C17   1.341       .  A
N16         Cu22   2.076       .  S
C17          C18   1.389       .  A
C17          H20   1.081       .  S
C18         C300   1.489       .  S
C18          C19   1.389       .  A
C19          H21   1.081       .  S
Cu22         N25   2.075       .  S
Cu23         N33   2.074       .  S
Cu24         N26   2.085       .  S
Cu24         N32   2.086       .  S
N25          N26   1.322       .  A
N25          C29   1.346       .  A
N26          C27   1.348       .  A
C27          C28   1.386       .  A
C27          H30   1.082       .  S
C28          C29   1.382       .  A
C28         C265   1.479       .  S
C29          H31   1.082       .  S
N32          N33   1.323       .  A
N32          C36   1.344       .  A
N33          C34   1.346       .  A
C34          C35   1.385       .  A
C34          H37   1.082       .  S
C35         C270   1.484       .  S
C35          C36   1.388       .  A
C36          H38   1.082       .  S
N39          N40   1.321       .  A
N39          C43   1.347       .  A
N39         Cu47   2.075       .  S
N40          C41   1.341       .  A
N40         Cu46   2.075       .  S
C41          C42   1.389       .  A
C41          H44   1.080       .  S
C42         C313   1.489       .  S
C42          C43   1.389       .  A
C43          H45   1.081       .  S
Cu46         N49   2.074       .  S
Cu47         N57   2.076       .  S
Cu48         N50   2.082       .  S
Cu48         N56   2.083       .  S
N49          N50   1.321       .  A
N49          C53   1.346       .  A
N50          C51   1.348       .  A
C51          C52   1.387       .  A
C51          H54   1.082       .  S
C52          C53   1.383       .  A
C52         C266   1.479       .  S
C53          H55   1.082       .  S
N56          N57   1.322       .  A
N56          C60   1.343       .  A
N57          C58   1.347       .  A
C58          C59   1.387       .  A
C58          H61   1.081       .  S
C59         C256   1.487       .  S
C59          C60   1.389       .  A
C60          H62   1.081       .  S
O63         Cu71   2.044   1_455  S
O63          C73   1.283       .  A
O64         Cu71   2.043       .  S
O64          C74   1.282       .  A
O65         Cu71   1.973   1_455  S
O65          C75   1.274       .  A
O66         Cu71   1.978       .  S
O66          C76   1.274       .  A
O67         Cu72   2.041   1_655  S
O67          C76   1.282       .  A
O68         Cu72   2.042       .  S
O68          C75   1.282       .  A
O69         Cu72   1.969   1_655  S
O69          C74   1.273       .  A
O70         Cu72   1.975       .  S
O70          C73   1.274       .  A
Cu71        Cu72   2.368   1_655  S
C73         C236   1.484       .  S
C74         C216   1.481       .  S
C75         C246   1.481       .  S
C76         C226   1.483       .  S
N77          N78   1.321       .  A
N77          C81   1.347       .  A
N77         Cu85   2.077       .  S
N78          C79   1.342       .  A
N78         Cu84   2.073       .  S
C79          C80   1.387       .  A
C79          H82   1.081       .  S
C80         C229   1.484       .  S
C80          C81   1.387       .  A
C81          H83   1.082       .  S
Cu84         N87   2.072       .  S
Cu85         N95   2.078       .  S
Cu86         N88   2.085       .  S
Cu86         N94   2.086       .  S
N87          N88   1.322       .  A
N87          C91   1.345       .  A
N88          C89   1.347       .  A
C89          C90   1.388       .  A
C89          H92   1.082       .  S
C90          C91   1.382       .  A
C90         C211   1.479       .  S
C91          H93   1.082       .  S
N94          N95   1.323       .  A
N94          C98   1.345       .  A
N95          C96   1.347       .  A
C96          C97   1.386       .  A
C96          H99   1.082       .  S
C97         C293   1.486       .  S
C97          C98   1.388       .  A
C98         H100   1.082       .  S
N101        N102   1.323       .  A
N101        C105   1.348       .  A
N101       Cu109   2.078       .  S
N102        C103   1.342       .  A
N102       Cu108   2.079       .  S
C103        C104   1.386       .  A
C103        H106   1.081       .  S
C104        C239   1.483       .  S
C104        C105   1.386       .  A
C105        H107   1.082       .  S
Cu108       N111   2.078       .  S
Cu109       N119   2.078       .  S
Cu110       N112   2.075       .  S
Cu110       N118   2.076       .  S
N111        N112   1.321       .  A
N111        C115   1.347       .  A
N112        C113   1.345       .  A
C113        C114   1.382       .  A
C113        H116   1.082       .  S
C114        C115   1.387       .  A
C114        C212   1.479       .  S
C115        H117   1.082       .  S
N118        N119   1.322       .  A
N118        C122   1.343       .  A
N119        C120   1.347       .  A
C120        C121   1.388       .  A
C120        H123   1.081       .  S
C121        C283   1.486       .  S
C121        C122   1.388       .  A
C122        H124   1.081       .  S
O125       Cu133   2.049       .  S
O125        C135   1.283       .  A
O126       Cu133   2.052       .  S
O126        C136   1.284       .  A
O127       Cu133   1.976       .  S
O127        C137   1.274       .  A
O128       Cu133   1.978       .  S
O128        C138   1.274       .  A
O129       Cu134   2.042       .  S
O129        C138   1.283       .  A
O130       Cu134   2.041       .  S
O130        C137   1.282       .  A
O131       Cu134   1.975       .  S
O131        C136   1.274       .  A
O132       Cu134   1.972       .  S
O132        C135   1.273       .  A
Cu133      Cu134   2.367       .  S
C135        C259   1.484       .  S
C136        C205   1.487       .  S
C137        C192   1.482       .  S
C138        C273   1.483       .  S
N139        N140   1.320       .  A
N139        C143   1.346       .  A
N139       Cu147   2.065       .  S
N140        C141   1.340       .  A
N140       Cu146   2.072       .  S
C141        C142   1.388       .  A
C141        H144   1.081       .  S
C142        C219   1.483       .  S
C142        C143   1.386       .  A
C143        H145   1.081       .  S
Cu146       N149   2.071       .  S
Cu147       N157   2.065       .  S
Cu148       N150   2.082       .  S
Cu148       N156   2.083       .  S
N149        N150   1.322       .  A
N149        C153   1.345       .  A
N150        C151   1.347       .  A
C151        C152   1.386       .  A
C151        H154   1.082       .  S
C152        C153   1.381       .  A
C152        C188   1.476       .  S
C153        H155   1.082       .  S
N156        N157   1.323       .  A
N156        C160   1.343       .  A
N157        C158   1.345       .  A
C158        C159   1.384       .  A
C158        H161   1.082       .  S
C159        C195   1.481       .  S
C159        C160   1.388       .  A
C160        H162   1.081       .  S
N163        N164   1.321       .  A
N163        C167   1.348       .  A
N163       Cu171   2.075       .  S
N164        C165   1.340       .  A
N164       Cu170   2.069       .  S
C165        C166   1.388       .  A
C165        H168   1.081       .  S
C166        C249   1.487       .  S
C166        C167   1.389       .  A
C167        H169   1.081       .  S
Cu170       N173   2.068       .  S
Cu171       N181   2.076       .  S
Cu172       N174   2.083       .  S
Cu172       N180   2.085       .  S
N173        N174   1.321       .  A
N173        C177   1.345       .  A
N174        C175   1.347       .  A
C175        C176   1.386       .  A
C175        H178   1.082       .  S
C176        C177   1.381       .  A
C176        C187   1.475       .  S
C177        H179   1.082       .  S
N180        N181   1.323       .  A
N180        C184   1.343       .  A
N181        C182   1.347       .  A
C182        C183   1.387       .  A
C182        H185   1.081       .  S
C183        C202   1.488       .  S
C183        C184   1.389       .  A
C184        H186   1.081       .  S
C187        C188   1.341   1_565  D
C187        H189   1.087   1_565  S
C188        H190   1.087   1_545  S
C191        C192   1.405       .  A
C191        C196   1.404       .  A
C191        H197   1.083       .  S
C192        C193   1.407       .  A
C193        C194   1.391       .  A
C193        H198   1.083       .  S
C194        C195   1.401       .  A
C194        H199   1.082       .  S
C195        C196   1.409       .  A
C196        H200   1.082       .  S
C201        C202   1.402       .  A
C201        C206   1.392       .  A
C201        H207   1.081       .  S
C202        C203   1.410       .  A
C203        C204   1.407       .  A
C203        H208   1.082       .  S
C204        C205   1.406       .  A
C204        H209   1.083       .  S
C205        C206   1.407       .  A
C206        H210   1.083       .  S
C211        C212   1.343       .  D
C211        H213   1.086       .  S
C212        H214   1.086       .  S
C215        C216   1.405       .  A
C215        C220   1.405       .  A
C215        H221   1.083       .  S
C216        C217   1.406       .  A
C217        C218   1.388       .  A
C217        H222   1.083       .  S
C218        C219   1.401       .  A
C218        H223   1.081       .  S
C219        C220   1.410       .  A
C220        H224   1.082       .  S
C225        C226   1.405       .  A
C225        C230   1.404       .  A
C225        H231   1.083       .  S
C226        C227   1.406       .  A
C227        C228   1.392       .  A
C227        H232   1.083       .  S
C228        C229   1.403       .  A
C228        H233   1.082       .  S
C229        C230   1.408       .  A
C230        H234   1.082       .  S
C235        C236   1.406       .  A
C235        C240   1.406       .  A
C235        H241   1.083       .  S
C236        C237   1.407       .  A
C237        C238   1.391       .  A
C237        H242   1.083       .  S
C238        C239   1.402       .  A
C238        H243   1.082       .  S
C239        C240   1.408       .  A
C240        H244   1.083       .  S
C245        C246   1.405       .  A
C245        C250   1.389       .  A
C245        H251   1.083       .  S
C246        C247   1.405       .  A
C247        C248   1.406       .  A
C247        H252   1.083       .  S
C248        C249   1.410       .  A
C248        H253   1.082       .  S
C249        C250   1.403       .  A
C250        H254   1.080       .  S
C255        C256   1.410       .  A
C255        C260   1.406       .  A
C255        H261   1.082       .  S
C256        C257   1.403       .  A
C257        C258   1.392       .  A
C257        H262   1.081       .  S
C258        C259   1.407       .  A
C258        H263   1.083       .  S
C259        C260   1.405       .  A
C260        H264   1.083       .  S
C265        C266   1.343   1_455  D
C265        H267   1.086       .  S
C266        H268   1.087   1_655  S
C269        C270   1.402       .  A
C269        C274   1.394       .  A
C269        H275   1.082       .  S
C270        C271   1.408       .  A
C271        C272   1.403       .  A
C271        H276   1.082       .  S
C272        C273   1.405       .  A
C272        H277   1.083       .  S
C273        C274   1.408       .  A
C274        H278   1.083       .  S
C279        C280   1.405       .  A
C279        C284   1.404       .  A
C279        H285   1.083       .  S
C280        C281   1.406       .  A
C281        C282   1.393       .  A
C281        H286   1.083       .  S
C282        C283   1.404       .  A
C282        H287   1.081       .  S
C283        C284   1.409       .  A
C284        H288   1.082       .  S
C289        C290   1.408       .  A
C289        C294   1.394       .  A
C289        H295   1.083       .  S
C290        C291   1.406       .  A
C291        C292   1.406       .  A
C291        H296   1.083       .  S
C292        C293   1.409       .  A
C292        H297   1.082       .  S
C293        C294   1.402       .  A
C294        H298   1.082       .  S
C299        C300   1.411       .  A
C299        C304   1.407       .  A
C299        H305   1.082       .  S
C300        C301   1.403       .  A
C301        C302   1.389       .  A
C301        H306   1.080       .  S
C302        C303   1.406       .  A
C302        H307   1.083       .  S
C303        C304   1.406       .  A
C304        H308   1.083       .  S
C309        C310   1.405       .  A
C309        C314   1.404       .  A
C309        H315   1.083       .  S
C310        C311   1.404       .  A
C311        C312   1.392       .  A
C311        H316   1.083       .  S
C312        C313   1.405       .  A
C312        H317   1.080       .  S
C313        C314   1.410       .  A
C314        H318   1.081       .  S
