geometry optimzed in LAMMPS
_audit_creation_date              2020-12-01 
_audit_creation_method            'lammps2cif' 
_symmetry_space_group_name_H-M    'P1' 
_symmetry_Int_Tables_number       1 
_symmetry_cell_setting            triclinic 
loop_ 
_symmetry_equiv_pos_as_xyz 
  x,y,z 
_cell_length_a                    29.73163912 
_cell_length_b                    29.687468490563365 
_cell_length_c                    42.64463271920063 
_cell_angle_alpha                 90.38302642316422 
_cell_angle_beta                  90.17134417864447 
_cell_angle_gamma                 121.22030089917497 
loop_ 
_atom_site_label 
_atom_site_type_symbol 
_atom_site_fract_x 
_atom_site_fract_y 
_atom_site_fract_z 
_atom_site_charge 
O1          O  0.57714826  0.06862285  0.03495779    -0.71500
O2          O  0.53389434  0.95421884  0.96943242    -0.72500
O3          O  0.57479743  0.06454744  0.96809914    -0.61100
O4          O  0.53592719  0.95759675  0.03608496    -0.69500
O5          O  0.45496419  0.94345211  0.03683021    -0.69000
O6          O  0.49352480  0.04956313  0.96790164    -0.60300
O7          O  0.45276036  0.93956218  0.97015133    -0.72800
O8          O  0.49603382  0.05414111  0.03444507    -0.71600
Cu9        Cu  0.55829627  0.01178716  0.00220738     1.04600
Cu10       Cu  0.47152068  0.99616577  0.00240976     1.04300
C11         C  0.54334065  0.07977330  0.04467635     0.94700
C12         C  0.48641549  0.92901587  0.95940299     0.93900
C13         C  0.54023063  0.07362040  0.95705852     0.86000
C14         C  0.48926981  0.93328706  0.04697971     0.92300
N15         N  0.36078926  0.61694264  0.79138273    -0.25800
N16         N  0.40551229  0.65575089  0.80321255    -0.33700
C17         C  0.44534753  0.65110527  0.79195053     0.02500
C18         C  0.42430974  0.60692858  0.77257479     0.08500
C19         C  0.37066393  0.58655482  0.77278487    -0.04600
H20         H  0.48652091  0.67800678  0.79729047     0.09200
H21         H  0.34079588  0.55313596  0.75950594     0.10400
Cu22       Cu  0.40883127  0.71281064  0.83389124     0.44200
Cu23       Cu  0.28742116  0.60676265  0.79802468     0.42000
Cu24       Cu  0.28041140  0.70180014  0.84343327     0.43900
N25         N  0.39521165  0.76083450  0.86368567    -0.33200
N26         N  0.34875534  0.75645379  0.86637499    -0.27500
C27         C  0.35214897  0.79175096  0.88751378    -0.03600
C28         C  0.40290738  0.81985621  0.89895691     0.08600
C29         C  0.42945234  0.79938196  0.88335066     0.02400
H30         H  0.31957643  0.79606141  0.89443456     0.10100
H31         H  0.47027155  0.81110500  0.88621506     0.09200
N32         N  0.21493964  0.64040595  0.82164686    -0.34700
N33         N  0.21765020  0.60447127  0.80476177    -0.26800
C34         C  0.16919318  0.56811341  0.79461140    -0.02100
C35         C  0.13459045  0.58214520  0.80572607     0.06500
C36         C  0.16457313  0.62797596  0.82285309     0.04600
H37         H  0.15980274  0.53348535  0.78088678     0.09700
H38         H  0.15077504  0.64982599  0.83589268     0.08600
N39         N  0.63849097  0.36822646  0.78490304    -0.25800
N40         N  0.59631613  0.32780677  0.79739185    -0.33700
C41         C  0.55351200  0.32877725  0.78776893     0.02500
C42         C  0.56989416  0.37224814  0.76873431     0.08500
C43         C  0.62401333  0.39606679  0.76745166    -0.04600
H44         H  0.51347868  0.29996532  0.79407236     0.09200
H45         H  0.65113062  0.43031700  0.75408900     0.10400
Cu46       Cu  0.60064375  0.27436168  0.82717175     0.44200
Cu47       Cu  0.71449684  0.38447613  0.79026200     0.42000
Cu48       Cu  0.73368514  0.29736764  0.83710083     0.43900
N49         N  0.61995041  0.23140197  0.85732426    -0.33200
N50         N  0.66805130  0.23980440  0.86029941    -0.27500
C51         C  0.66805380  0.20742651  0.88214119    -0.03600
C52         C  0.61780831  0.17719120  0.89374427     0.08600
C53         C  0.58810153  0.19328122  0.87744564     0.02400
H54         H  0.70258412  0.20688103  0.88961335     0.10100
H55         H  0.54673934  0.17912846  0.88027854     0.09200
N56         N  0.79503139  0.36261575  0.81574439    -0.34700
N57         N  0.78782625  0.39516278  0.79847205    -0.26800
C58         C  0.83481032  0.43547719  0.78945655    -0.02100
C59         C  0.87314827  0.42762562  0.80171588     0.06500
C60         C  0.84688605  0.38129581  0.81828288     0.04600
H61         H  0.84056073  0.46867624  0.77585231     0.09700
H62         H  0.86411387  0.36338885  0.83197739     0.08600
O63         O  0.95045408  0.50175498  0.37024927    -0.71500
O64         O  0.06449085  0.55422353  0.30383060    -0.72500
O65         O  0.95183482  0.49409292  0.30388705    -0.61100
O66         O  0.06321065  0.56311961  0.37021837    -0.69500
O67         O  0.06619911  0.49033892  0.37515433    -0.69000
O68         O  0.95380715  0.42064506  0.30768268    -0.60300
O69         O  0.06574352  0.48054184  0.30899426    -0.72800
O70         O  0.95378097  0.42899878  0.37388849    -0.71600
Cu71       Cu  0.00745996  0.53092161  0.33689645     1.04600
Cu72       Cu  0.00996666  0.45265139  0.34161516     1.04300
C73         C  0.93371992  0.45621608  0.38205004     0.94700
C74         C  0.08320013  0.52530079  0.29628627     0.93900
C75         C  0.93467137  0.44645616  0.29550411     0.86000
C76         C  0.08281655  0.53823066  0.38290548     0.92300
N77         N  0.62171584  0.26308424  0.12663267    -0.25800
N78         N  0.66191989  0.26027155  0.13751507    -0.33700
C79         C  0.66204700  0.21968656  0.12323199     0.02500
C80         C  0.61966694  0.19553927  0.10269102     0.08500
C81         C  0.59509731  0.22425911  0.10545815    -0.04600
H82         H  0.69080905  0.20848008  0.12754403     0.09200
H83         H  0.56093089  0.21823634  0.09264674     0.10400
Cu84       Cu  0.71452362  0.31147216  0.17152973     0.44200
Cu85       Cu  0.60419023  0.31984393  0.13971598     0.42000
Cu86       Cu  0.68907421  0.41374856  0.19684105     0.43900
N87         N  0.75924148  0.36849649  0.20547122    -0.33200
N88         N  0.74983519  0.40572656  0.21409725    -0.27500
C89         C  0.78562283  0.43697061  0.23571952    -0.03600
C90         C  0.81911812  0.41866288  0.24125337     0.08600
C91         C  0.80130865  0.37504273  0.22168664     0.02400
H92         H  0.78708203  0.47066959  0.24670874     0.10100
H93         H  0.81787858  0.35028184  0.21910266     0.09200
N94         N  0.62594593  0.41514871  0.17716441    -0.34700
N95         N  0.59439140  0.38039456  0.15588552    -0.26800
C96         C  0.55740682  0.39146719  0.14762263    -0.02100
C97         C  0.56632215  0.43520786  0.16460822     0.06500
C98         C  0.60995533  0.44926067  0.18309419     0.04600
H99         H  0.52640737  0.36930411  0.13059421     0.09700
H100        H  0.62870307  0.48178320  0.19962934     0.08600
N101        N  0.40833262  0.75613154  0.13279295    -0.25800
N102        N  0.36864853  0.76095136  0.14217817    -0.33700
C103        C  0.37081492  0.80190049  0.12731708     0.02500
C104        C  0.41407729  0.82421386  0.10783531     0.08500
C105        C  0.43698887  0.79414387  0.11193509    -0.04600
H106        H  0.34233038  0.81390910  0.13001905     0.09200
H107        H  0.47068410  0.79806299  0.09976454     0.10400
Cu108      Cu  0.31172449  0.71005138  0.17357800     0.44200
Cu109      Cu  0.41901186  0.69498761  0.14614496     0.42000
Cu110      Cu  0.31797829  0.59503841  0.19480822     0.43900
N111        N  0.25926096  0.65236336  0.20406548    -0.33200
N112        N  0.26138196  0.61030311  0.21144143    -0.27500
C113        C  0.22248363  0.58087889  0.23160069    -0.03600
C114        C  0.19438350  0.60556679  0.23728917     0.08600
C115        C  0.21897218  0.65081642  0.21945994     0.02400
H116        H  0.21600839  0.54468359  0.24168018     0.10100
H117        H  0.20853122  0.68064598  0.21793820     0.09200
N118        N  0.37995502  0.58970761  0.17662040    -0.34700
N119        N  0.41734572  0.62668908  0.15908874    -0.26800
C120        C  0.45199609  0.61215400  0.15146823    -0.02100
C121        C  0.43550692  0.56382002  0.16483795     0.06500
C122        C  0.38983375  0.55065238  0.18062334     0.04600
H123        H  0.48673142  0.63523855  0.13741596     0.09700
H124        H  0.36583720  0.51561145  0.19426486     0.08600
O125        O  0.48223074  0.42000191  0.70906837    -0.71500
O126        O  0.41586552  0.46550741  0.64328538    -0.72500
O127        O  0.47504842  0.41484301  0.64276573    -0.61100
O128        O  0.42264668  0.47083298  0.70970029    -0.69500
O129        O  0.49631510  0.54904317  0.70754518    -0.69000
O130        O  0.54891291  0.49269670  0.63949268    -0.60300
O131        O  0.48963315  0.54355683  0.64121855    -0.72800
O132        O  0.55565218  0.49823053  0.70582718    -0.71600
Cu133      Cu  0.44636167  0.44009580  0.67634936     1.04600
Cu134      Cu  0.52520491  0.52359012  0.67346133     1.04300
C135        C  0.53003300  0.45198102  0.71725046     0.94700
C136        C  0.44228402  0.51200064  0.63215225     0.93900
C137        C  0.52021030  0.44457268  0.63069669     0.86000
C138        C  0.45054116  0.51871368  0.71887388     0.92300
N139        N  0.60934237  0.36177087  0.54346255    -0.25800
N140        N  0.64953696  0.40813572  0.53527033    -0.33700
C141        C  0.64705342  0.44601416  0.55141727     0.02500
C142        C  0.60303457  0.42219649  0.57039964     0.08500
C143        C  0.58027127  0.36873629  0.56472054    -0.04600
H144        H  0.67526275  0.48777590  0.54956518     0.09200
H145        H  0.54569356  0.33679602  0.57558409     0.10400
Cu146      Cu  0.70564552  0.41650078  0.50267799     0.44200
Cu147      Cu  0.59532317  0.28989026  0.52721686     0.42000
Cu148      Cu  0.68747085  0.29061492  0.47431981     0.43900
N149        N  0.75476833  0.41017931  0.47029322    -0.33200
N150        N  0.74828582  0.36466161  0.46069401    -0.27500
C151        C  0.78666859  0.37400052  0.44043843    -0.03600
C152        C  0.81904211  0.42798845  0.43690293     0.08600
C153        C  0.79737544  0.44963690  0.45605182     0.02400
H154        H  0.78997091  0.34340363  0.42875968     0.10100
H155        H  0.81170832  0.49107535  0.45950913     0.09200
N156        N  0.62368474  0.22126421  0.49124425    -0.34700
N157        N  0.58947598  0.22141166  0.51089099    -0.26800
C158        C  0.55325226  0.17152528  0.51833082    -0.02100
C159        C  0.56529264  0.13846187  0.50254779     0.06500
C160        C  0.61007965  0.17102436  0.48556436     0.04600
H161        H  0.52091819  0.16030497  0.53424942     0.09700
H162        H  0.63140429  0.15919940  0.47045438     0.08600
N163        N  0.40551113  0.65832747  0.55277181    -0.24900
N164        N  0.36843783  0.61071560  0.54328326    -0.33700
C165        C  0.37428824  0.57468254  0.55893889     0.02500
C166        C  0.41722410  0.60122914  0.57904620     0.08500
C167        C  0.43590357  0.65395176  0.57438369    -0.04600
H168        H  0.34935613  0.53252519  0.55574540     0.09200
H169        H  0.46909832  0.68694138  0.58608936     0.10400
Cu170      Cu  0.31185315  0.59783728  0.50947150     0.44200
Cu171      Cu  0.41400861  0.72828962  0.53733689     0.42000
Cu172      Cu  0.31856161  0.71843658  0.48297624     0.43900
N173        N  0.26031899  0.59928530  0.47662266    -0.33200
N174        N  0.26269125  0.64306140  0.46767663    -0.27500
C175        C  0.22402035  0.63091841  0.44678563    -0.03600
C176        C  0.19570606  0.57680951  0.44217199     0.08600
C177        C  0.22001842  0.55809929  0.46137707     0.02400
H178        H  0.21779378  0.65978014  0.43551223     0.10100
H179        H  0.20914390  0.51747133  0.46409341     0.09200
N180        N  0.37899646  0.79018583  0.50021278    -0.34700
N181        N  0.41458575  0.79373367  0.52035298    -0.26800
C182        C  0.44914274  0.84484202  0.52683623    -0.02100
C183        C  0.43441562  0.87467757  0.50992457     0.06500
C184        C  0.38991164  0.83901450  0.49326143     0.04600
H185        H  0.48272187  0.85911882  0.54240511     0.09700
H186        H  0.36751662  0.84781896  0.47703443     0.08600
C187        C  0.53726060  0.08183676  0.50409338    -0.17000
C188        C  0.51318150  0.03438047  0.50571450     0.07000
C189        C  0.48496237  0.97876219  0.50753508     0.08900
C190        C  0.46142321  0.93128420  0.50879252    -0.17900
C191        C  0.53849693  0.42149094  0.60691061    -0.15000
C192        C  0.58547337  0.44836913  0.59272106    -0.30100
H193        H  0.51203968  0.38010839  0.60137096     0.14100
H194        H  0.61161159  0.49009014  0.59763947     0.14600
C195        C  0.41760335  0.52955180  0.60891137    -0.15000
C196        C  0.44050874  0.58055556  0.60106406    -0.30100
H197        H  0.37952498  0.50068862  0.59907129     0.14100
H198        H  0.47765854  0.60929922  0.61201908     0.14600
C199        C  0.53642270  0.46093800  0.16346651    -0.17000
C200        C  0.51212903  0.48332330  0.16303633     0.07000
C201        C  0.48451830  0.51046298  0.16310447     0.08900
C202        C  0.46173498  0.53437351  0.16364429    -0.17900
C203        C  0.88975421  0.43235099  0.40453676    -0.15000
C204        C  0.86569057  0.45650332  0.41635216    -0.30100
H205        H  0.87604543  0.39204125  0.41120117     0.14100
H206        H  0.88024360  0.49748653  0.41093962     0.14600
C207        C  0.89170846  0.42074657  0.27197064    -0.15000
C208        C  0.86414329  0.44306219  0.26334821    -0.30100
H209        H  0.88126668  0.38233528  0.26271516     0.14100
H210        H  0.87375105  0.48056919  0.27374613     0.14600
C211        C  0.12600529  0.54248950  0.27327685    -0.15000
C212        C  0.14926457  0.58915122  0.25867542    -0.30100
H213        H  0.13951760  0.51541052  0.26881032     0.14100
H214        H  0.13545031  0.61613800  0.26269504     0.14600
C215        C  0.12579512  0.56675448  0.40605471    -0.15000
C216        C  0.15039763  0.54539106  0.42068920    -0.30100
H217        H  0.13823720  0.60762060  0.41060106     0.14100
H218        H  0.13738183  0.50420194  0.41674081     0.14600
C219        C  0.53679293  0.38782748  0.75143182    -0.15000
C220        C  0.55804030  0.43609691  0.73890705    -0.30100
H221        H  0.49526499  0.35896722  0.74811335     0.14100
H222        H  0.59918216  0.46512142  0.74334005     0.14600
C223        C  0.92900383  0.46287752  0.80014609    -0.17000
C224        C  0.97601339  0.49213729  0.79992994     0.07000
C225        C  0.03117872  0.52531329  0.80090065     0.08900
C226        C  0.07838022  0.55221678  0.80266560    -0.17900
C227        C  0.42744775  0.53841168  0.74170322    -0.15000
C228        C  0.45274272  0.58771441  0.75357817    -0.30100
H229        H  0.38671989  0.51131315  0.74794161     0.14100
H230        H  0.49410957  0.61456991  0.74865976     0.14600
C231        C  0.47542650  0.89228063  0.07085373    -0.15000
C232        C  0.42884422  0.86776033  0.08558552    -0.30100
H233        H  0.50446028  0.88162132  0.07611817     0.14100
H234        H  0.40051495  0.87971110  0.08119577     0.14600
C235        C  0.60541216  0.15011951  0.08159098    -0.15000
C236        C  0.55816324  0.12329410  0.06726675    -0.30100
H237        H  0.63417862  0.13852412  0.07791506     0.14100
H238        H  0.52881206  0.13371048  0.07203183     0.14600
C239        C  0.42144912  0.86153671  0.92324761    -0.15000
C240        C  0.47056705  0.88758743  0.93507634    -0.30100
H241        H  0.39280397  0.87088914  0.93179665     0.14100
H242        H  0.49962768  0.87872438  0.92673399     0.14600
C243        C  0.55385796  0.11199647  0.93149265    -0.15000
C244        C  0.60226709  0.13813083  0.91906091    -0.30100
H245        H  0.52350878  0.11877980  0.92283640     0.14100
H246        H  0.63242382  0.13123738  0.92801164     0.14600
loop_ 
_geom_bond_atom_site_label_1 
_geom_bond_atom_site_label_2 
_geom_bond_distance 
_geom_bond_site_symmetry_2 
_ccdc_geom_bond_type 
O1           Cu9   2.024       .  S
O1           C11   1.280       .  A
O2           Cu9   2.019   1_566  S
O2           C12   1.278       .  A
O3           Cu9   2.012   1_556  S
O3           C13   1.279       .  A
O4           Cu9   2.011   1_565  S
O4           C14   1.277       .  A
O5          Cu10   2.020       .  S
O5           C14   1.279       .  A
O6          Cu10   2.017   1_546  S
O6           C13   1.278       .  A
O7          Cu10   2.005   1_556  S
O7           C12   1.279       .  A
O8          Cu10   2.006   1_545  S
O8           C11   1.277       .  A
Cu9         Cu10   2.373   1_545  S
C11         C236   1.477       .  S
C12         C240   1.480       .  S
C13         C243   1.480       .  S
C14         C231   1.479       .  S
N15          N16   1.323       .  A
N15          C19   1.340       .  A
N15         Cu23   2.062       .  S
N16          C17   1.351       .  A
N16         Cu22   2.095       .  S
C17          C18   1.388       .  A
C17          H20   1.082       .  S
C18         C228   1.481       .  S
C18          C19   1.382       .  A
C19          H21   1.082       .  S
Cu22         N25   2.095       .  S
Cu23         N33   2.061       .  S
Cu24         N26   2.066       .  S
Cu24         N32   2.065       .  S
N25          N26   1.324       .  A
N25          C29   1.350       .  A
N26          C27   1.341       .  A
C27          C28   1.377       .  A
C27          H30   1.082       .  S
C28         C239   1.477       .  S
C28          C29   1.389       .  A
C29          H31   1.081       .  S
N32          N33   1.320       .  A
N32          C36   1.345       .  A
N33          C34   1.344       .  A
C34          C35   1.379       .  A
C34          H37   1.082       .  S
C35          C36   1.380       .  A
C35         C226   1.434       .  S
C36          H38   1.082       .  S
N39          N40   1.322       .  A
N39          C43   1.341       .  A
N39         Cu47   2.063       .  S
N40          C41   1.351       .  A
N40         Cu46   2.094       .  S
C41          C42   1.388       .  A
C41          H44   1.082       .  S
C42         C219   1.483       .  S
C42          C43   1.383       .  A
C43          H45   1.081       .  S
Cu46         N49   2.094       .  S
Cu47         N57   2.062       .  S
Cu48         N50   2.070       .  S
Cu48         N56   2.069       .  S
N49          N50   1.324       .  A
N49          C53   1.349       .  A
N50          C51   1.343       .  A
C51          C52   1.379       .  A
C51          H54   1.082       .  S
C52         C244   1.479       .  S
C52          C53   1.389       .  A
C53          H55   1.081       .  S
N56          N57   1.321       .  A
N56          C60   1.345       .  A
N57          C58   1.345       .  A
C58          C59   1.379       .  A
C58          H61   1.082       .  S
C59          C60   1.380       .  A
C59         C223   1.434       .  S
C60          H62   1.082       .  S
O63         Cu71   2.038   1_655  S
O63          C73   1.281       .  A
O64         Cu71   2.038       .  S
O64          C74   1.282       .  A
O65         Cu71   2.001   1_655  S
O65          C75   1.278       .  A
O66         Cu71   2.001       .  S
O66          C76   1.276       .  A
O67         Cu72   2.029       .  S
O67          C76   1.280       .  A
O68         Cu72   2.027   1_655  S
O68          C75   1.279       .  A
O69         Cu72   1.994       .  S
O69          C74   1.275       .  A
O70         Cu72   1.997   1_655  S
O70          C73   1.275       .  A
Cu71        Cu72   2.373       .  S
C73         C203   1.479       .  S
C74         C211   1.478       .  S
C75         C207   1.481       .  S
C76         C215   1.478       .  S
N77          N78   1.324       .  A
N77          C81   1.344       .  A
N77         Cu85   2.079       .  S
N78          C79   1.348       .  A
N78         Cu84   2.086       .  S
C79          C80   1.385       .  A
C79          H82   1.082       .  S
C80         C235   1.482       .  S
C80          C81   1.385       .  A
C81          H83   1.081       .  S
Cu84         N87   2.086       .  S
Cu85         N95   2.078       .  S
Cu86         N88   2.074       .  S
Cu86         N94   2.074       .  S
N87          N88   1.323       .  A
N87          C91   1.350       .  A
N88          C89   1.342       .  A
C89          C90   1.380       .  A
C89          H92   1.082       .  S
C90         C208   1.477       .  S
C90          C91   1.388       .  A
C91          H93   1.082       .  S
N94          N95   1.322       .  A
N94          C98   1.346       .  A
N95          C96   1.347       .  A
C96          C97   1.382       .  A
C96          H99   1.082       .  S
C97          C98   1.381       .  A
C97         C199   1.442       .  S
C98         H100   1.082       .  S
N101        N102   1.323       .  A
N101        C105   1.346       .  A
N101       Cu109   2.081       .  S
N102        C103   1.346       .  A
N102       Cu108   2.081       .  S
C103        C104   1.383       .  A
C103        H106   1.082       .  S
C104        C232   1.481       .  S
C104        C105   1.387       .  A
C105        H107   1.081       .  S
Cu108       N111   2.081       .  S
Cu109       N119   2.081       .  S
Cu110       N112   2.082       .  S
Cu110       N118   2.081       .  S
N111        N112   1.322       .  A
N111        C115   1.348       .  A
N112        C113   1.345       .  A
C113        C114   1.388       .  A
C113        H116   1.081       .  S
C114        C212   1.485       .  S
C114        C115   1.384       .  A
C115        H117   1.082       .  S
N118        N119   1.323       .  A
N118        C122   1.347       .  A
N119        C120   1.347       .  A
C120        C121   1.381       .  A
C120        H123   1.082       .  S
C121        C122   1.382       .  A
C121        C202   1.443       .  S
C122        H124   1.082       .  S
O125       Cu133   2.025       .  S
O125        C135   1.279       .  A
O126       Cu133   2.024       .  S
O126        C136   1.279       .  A
O127       Cu133   1.999       .  S
O127        C137   1.276       .  A
O128       Cu133   2.002       .  S
O128        C138   1.277       .  A
O129       Cu134   2.022       .  S
O129        C138   1.279       .  A
O130       Cu134   2.024       .  S
O130        C137   1.279       .  A
O131       Cu134   2.003       .  S
O131        C136   1.278       .  A
O132       Cu134   2.001       .  S
O132        C135   1.277       .  A
Cu133      Cu134   2.374       .  S
C135        C220   1.475       .  S
C136        C195   1.480       .  S
C137        C191   1.475       .  S
C138        C227   1.474       .  S
N139        N140   1.322       .  A
N139        C143   1.341       .  A
N139       Cu147   2.065       .  S
N140        C141   1.349       .  A
N140       Cu146   2.089       .  S
C141        C142   1.387       .  A
C141        H144   1.082       .  S
C142        C192   1.482       .  S
C142        C143   1.384       .  A
C143        H145   1.081       .  S
Cu146       N149   2.090       .  S
Cu147       N157   2.064       .  S
Cu148       N150   2.084       .  S
Cu148       N156   2.082       .  S
N149        N150   1.324       .  A
N149        C153   1.350       .  A
N150        C151   1.344       .  A
C151        C152   1.387       .  A
C151        H154   1.081       .  S
C152        C204   1.486       .  S
C152        C153   1.386       .  A
C153        H155   1.082       .  S
N156        N157   1.321       .  A
N156        C160   1.348       .  A
N157        C158   1.345       .  A
C158        C159   1.379       .  A
C158        H161   1.082       .  S
C159        C160   1.383       .  A
C159        C187   1.440       .  S
C160        H162   1.082       .  S
N163        N164   1.323       .  A
N163        C167   1.342       .  A
N163       Cu171   2.070       .  S
N164        C165   1.350       .  A
N164       Cu170   2.090       .  S
C165        C166   1.388       .  A
C165        H168   1.082       .  S
C166        C196   1.477       .  S
C166        C167   1.379       .  A
C167        H169   1.082       .  S
Cu170       N173   2.090       .  S
Cu171       N181   2.070       .  S
Cu172       N174   2.077       .  S
Cu172       N180   2.076       .  S
N173        N174   1.323       .  A
N173        C177   1.349       .  A
N174        C175   1.344       .  A
C175        C176   1.386       .  A
C175        H178   1.081       .  S
C176        C216   1.484       .  S
C176        C177   1.386       .  A
C177        H179   1.082       .  S
N180        N181   1.321       .  A
N180        C184   1.347       .  A
N181        C182   1.346       .  A
C182        C183   1.380       .  A
C182        H185   1.082       .  S
C183        C184   1.382       .  A
C183        C190   1.440       .  S
C184        H186   1.082       .  S
C187        C188   1.208       .  T
C188        C189   1.415   1_545  S
C189        C190   1.207       .  T
C191        C192   1.345       .  D
C191        H193   1.085       .  S
C192        H194   1.086       .  S
C195        C196   1.344       .  D
C195        H197   1.086       .  S
C196        H198   1.087       .  S
C199        C200   1.209       .  T
C200        C201   1.417       .  S
C201        C202   1.209       .  T
C203        C204   1.345       .  D
C203        H205   1.086       .  S
C204        H206   1.086       .  S
C207        C208   1.345       .  D
C207        H209   1.086       .  S
C208        H210   1.087       .  S
C211        C212   1.344       .  D
C211        H213   1.085       .  S
C212        H214   1.086       .  S
C215        C216   1.345       .  D
C215        H217   1.085       .  S
C216        H218   1.086       .  S
C219        C220   1.346       .  D
C219        H221   1.086       .  S
C220        H222   1.085       .  S
C223        C224   1.204       .  T
C224        C225   1.409   1_655  S
C225        C226   1.204       .  T
C227        C228   1.346       .  D
C227        H229   1.086       .  S
C228        H230   1.086       .  S
C231        C232   1.345       .  D
C231        H233   1.086       .  S
C232        H234   1.086       .  S
C235        C236   1.345       .  D
C235        H237   1.086       .  S
C236        H238   1.086       .  S
C239        C240   1.343       .  D
C239        H241   1.087       .  S
C240        H242   1.086       .  S
C243        C244   1.344       .  D
C243        H245   1.086       .  S
C244        H246   1.087       .  S
