geometry optimzed in LAMMPS
_audit_creation_date              2020-12-01 
_audit_creation_method            'lammps2cif' 
_symmetry_space_group_name_H-M    'P1' 
_symmetry_Int_Tables_number       1 
_symmetry_cell_setting            triclinic 
loop_ 
_symmetry_equiv_pos_as_xyz 
  x,y,z 
_cell_length_a                    32.40655381 
_cell_length_b                    32.39185254588387 
_cell_length_c                    61.61377057473774 
_cell_angle_alpha                 90.10124792285221 
_cell_angle_beta                  90.03370744265958 
_cell_angle_gamma                 120.39775502637063 
loop_ 
_atom_site_label 
_atom_site_type_symbol 
_atom_site_fract_x 
_atom_site_fract_y 
_atom_site_fract_z 
_atom_site_charge 
O1          O  0.44187031  0.94939519  0.02368070    -0.71200
O2          O  0.49113817  0.05145217  0.97748419    -0.72200
O3          O  0.44144763  0.94957071  0.97762711    -0.60800
O4          O  0.49083075  0.05109344  0.02343954    -0.69200
O5          O  0.56062658  0.05350829  0.02355834    -0.68700
O6          O  0.51077379  0.95103544  0.97743822    -0.60000
O7          O  0.56043742  0.05286703  0.97760849    -0.72500
O8          O  0.51163516  0.95177687  0.02348412    -0.71300
Cu9        Cu  0.46384934  0.00027933  0.00055193     1.04600
Cu10       Cu  0.53830806  0.00233820  0.00051182     1.04300
C11         C  0.46924797  0.93468794  0.03076305     0.95000
C12         C  0.53379942  0.06833052  0.97049124     0.94200
C13         C  0.46810056  0.93419380  0.97042332     0.86300
C14         C  0.53339501  0.06844642  0.03057251     0.92600
C15         C  0.26810920  0.61398537  0.81796788     0.82000
N16         N  0.21957128  0.59100950  0.81781045    -0.76300
C17         C  0.19597913  0.59980237  0.83370749     0.84400
N18         N  0.22098898  0.63154963  0.84976695    -0.76300
C19         C  0.26953399  0.65445013  0.84991122     0.84500
N20         N  0.29300246  0.64564413  0.83401613    -0.78000
C21         C  0.72979969  0.38414836  0.81697828     0.82000
N22         N  0.70602473  0.35222324  0.83303247    -0.76300
C23         C  0.73064933  0.34464905  0.84880583     0.84400
N24         N  0.77922335  0.36910328  0.84854630    -0.76300
C25         C  0.80312522  0.40111517  0.83249218     0.84500
N26         N  0.77838440  0.40866784  0.81671598    -0.78000
O27         O  0.94624744  0.44039293  0.31053117    -0.71200
O28         O  0.04992545  0.49114992  0.35612999    -0.72200
O29         O  0.94815720  0.44016611  0.35651386    -0.60800
O30         O  0.04800320  0.49060063  0.31006681    -0.69200
O31         O  0.04934266  0.55989099  0.31028484    -0.68700
O32         O  0.94850897  0.50896646  0.35703366    -0.60000
O33         O  0.05021427  0.55992139  0.35633218    -0.72500
O34         O  0.94760504  0.50969471  0.31105929    -0.71300
Cu35       Cu  0.99806891  0.46314413  0.33329514     1.04600
Cu36       Cu  0.99896348  0.53705912  0.33369141     1.04300
C37         C  0.93064410  0.46725856  0.30378082     0.95000
C38         C  0.06625881  0.53367772  0.36330097     0.94200
C39         C  0.93244073  0.46636506  0.36395324     0.86300
C40         C  0.06448182  0.53303292  0.30294849     0.92600
C41         C  0.65463662  0.38919672  0.18206513     0.82000
N42         N  0.63046940  0.41332345  0.18223984    -0.76300
C43         C  0.59755180  0.40476860  0.16657484     0.84400
N44         N  0.58884576  0.37208949  0.15075484    -0.76300
C45         C  0.61307606  0.34804060  0.15059660     0.84500
N46         N  0.64591151  0.35660265  0.16624778    -0.78000
C47         C  0.34577342  0.61614472  0.18362417     0.82000
N48         N  0.36933363  0.59140101  0.18353259    -0.76300
C49         C  0.40249217  0.60020407  0.16798261     0.84400
N50         N  0.41200484  0.63371652  0.15253177    -0.76300
C51         C  0.38839641  0.65839614  0.15263492     0.84500
N52         N  0.35532487  0.64956750  0.16817217    -0.78000
O53         O  0.50743925  0.55902065  0.69056975    -0.71200
O54         O  0.55707692  0.50693593  0.64435312    -0.72200
O55         O  0.50799852  0.55906131  0.64453109    -0.60800
O56         O  0.55739272  0.50765358  0.69038450    -0.69200
O57         O  0.48819228  0.43882819  0.69049938    -0.68700
O58         O  0.43826233  0.49079191  0.64432762    -0.60000
O59         O  0.48734357  0.43864853  0.64446271    -0.72500
O60         O  0.43822869  0.49018905  0.69036869    -0.71300
Cu61       Cu  0.53492230  0.53558036  0.66746903     1.04600
Cu62       Cu  0.46055215  0.46219694  0.66742130     1.04300
C63         C  0.46480411  0.53260184  0.69756835     0.95000
C64         C  0.52979630  0.46444208  0.63727003     0.94200
C65         C  0.46550900  0.53327004  0.63729861     0.86300
C66         C  0.53088179  0.46525259  0.69752369     0.92600
C67         C  0.60845187  0.26842037  0.51501865     0.82000
N68         N  0.64126894  0.29358259  0.49947382    -0.76300
C69         C  0.65063271  0.27031820  0.48365661     0.84400
N70         N  0.62720928  0.22174974  0.48339769    -0.76300
C71         C  0.59430876  0.19646291  0.49893297     0.84500
N72         N  0.58494537  0.21982362  0.51476357    -0.78000
C73         C  0.38584928  0.73056963  0.51625840     0.82000
N74         N  0.41073448  0.77918925  0.51621397    -0.76300
C75         C  0.40259030  0.80351745  0.50045506     0.84400
N76         N  0.36957182  0.77917971  0.48475746    -0.76300
C77         C  0.34474186  0.73059404  0.48480303     0.84500
N78         N  0.35291277  0.70635834  0.50054655    -0.78000
C79         C  0.47616944  0.94979928  0.49955351     0.18800
C80         C  0.50227276  0.97607439  0.51775288    -0.10300
C81         C  0.52657175  0.02615244  0.51740295    -0.11200
C82         C  0.52490770  0.05026691  0.49885639     0.20400
C83         C  0.49901812  0.02400478  0.48060747    -0.13200
C84         C  0.47471174  0.97391226  0.48095746    -0.11500
C85         C  0.54937214  0.10184796  0.49866041     0.01300
C86         C  0.56978084  0.14502844  0.49872668    -0.31500
C87         C  0.45061589  0.89819356  0.50001954     0.02700
C88         C  0.42888508  0.85498577  0.50033627    -0.33200
H89         H  0.50368922  0.95786729  0.53222105     0.13800
H90         H  0.54647137  0.04604288  0.53160741     0.13600
H91         H  0.49746767  0.04221878  0.46616904     0.13400
H92         H  0.45466839  0.95401121  0.46678274     0.12500
C93         C  0.58385390  0.34426596  0.56098610     0.18800
C94         C  0.60994551  0.35824149  0.58043367    -0.10300
C95         C  0.60186409  0.38544761  0.59569069    -0.11200
C96         C  0.56773253  0.39886825  0.59153637     0.20400
C97         C  0.54188240  0.38512626  0.57203503    -0.13200
C98         C  0.54994860  0.35794076  0.55679601    -0.11500
C99         C  0.55782534  0.42514376  0.60754360     0.01300
C100        C  0.54675724  0.44480151  0.62103472    -0.31500
C101        C  0.59192545  0.31614553  0.54526482     0.02700
C102        C  0.59891217  0.29347877  0.53170114    -0.33200
H103        H  0.63632222  0.34795396  0.58382894     0.13800
H104        H  0.62191265  0.39568641  0.61075557     0.13600
H105        H  0.51525696  0.39511003  0.56869064     0.13400
H106        H  0.52963356  0.34742614  0.54180371     0.12500
C107        C  0.42637728  0.59890339  0.59210506     0.18800
C108        C  0.40787476  0.62763028  0.59892481    -0.10300
C109        C  0.39935155  0.65467936  0.58379872    -0.11200
C110        C  0.40936551  0.65320247  0.56177782     0.20400
C111        C  0.42758631  0.62425073  0.55494798    -0.13200
C112        C  0.43610720  0.59721427  0.57006749    -0.11500
C113        C  0.40123181  0.68147474  0.54618626     0.01300
C114        C  0.39448696  0.70453482  0.53276541    -0.31500
C115        C  0.43708285  0.57265582  0.60779139     0.02700
C116        C  0.44844043  0.55294643  0.62112056    -0.33200
H117        H  0.40043409  0.62942315  0.61593250     0.13800
H118        H  0.38525275  0.67691303  0.58927813     0.13600
H119        H  0.43546258  0.62280438  0.53796947     0.13400
H120        H  0.45063923  0.57534273  0.56460891     0.12500
C121        C  0.47416831  0.52653009  0.16733811     0.18800
C122        C  0.51054761  0.53819568  0.15210834    -0.10300
C123        C  0.53553589  0.51339922  0.15192321    -0.11200
C124        C  0.52428757  0.47680252  0.16696777     0.20400
C125        C  0.48783557  0.46505638  0.18216240    -0.13200
C126        C  0.46284678  0.48985184  0.18234768    -0.11500
C127        C  0.55017852  0.45142722  0.16684938     0.01300
C128        C  0.57185814  0.43018382  0.16675187    -0.31500
C129        C  0.44864235  0.55228599  0.16761768     0.02700
C130        C  0.42746716  0.57404527  0.16783588    -0.33200
H131        H  0.51962796  0.56646971  0.14042071     0.13800
H132        H  0.56362702  0.52279341  0.14009270     0.13600
H133        H  0.47880127  0.43682403  0.19386778     0.13400
H134        H  0.43479938  0.48049655  0.19419705     0.12500
C135        C  0.75392295  0.34839394  0.43899372     0.18800
C136        C  0.74311745  0.36174995  0.41911708    -0.10300
C137        C  0.77959296  0.38837246  0.40419304    -0.11200
C138        C  0.82700987  0.40180684  0.40911087     0.20400
C139        C  0.83779991  0.38863383  0.42902817    -0.13200
C140        C  0.80135943  0.36203382  0.44393663    -0.11500
C141        C  0.86437707  0.42761432  0.39347946     0.01300
C142        C  0.89570930  0.44699186  0.38018312    -0.31500
C143        C  0.71648462  0.32047601  0.45429265     0.02700
C144        C  0.68596230  0.29722758  0.46746874    -0.33200
H145        H  0.70655710  0.35137944  0.41512263     0.13800
H146        H  0.77080598  0.39815210  0.38879249     0.13600
H147        H  0.87428839  0.39860717  0.43295466     0.13400
H148        H  0.81011792  0.35188589  0.45924983     0.12500
C149        C  0.82575001  0.42834489  0.25849334     0.18800
C150        C  0.77723534  0.40083937  0.26398908    -0.10300
C151        C  0.74203292  0.39279969  0.24865839    -0.11200
C152        C  0.75522656  0.41231943  0.22779846     0.20400
C153        C  0.80372433  0.43955874  0.22228106    -0.13200
C154        C  0.83889173  0.44758369  0.23759527    -0.11500
C155        C  0.71915177  0.40455361  0.21204889     0.01300
C156        C  0.68945643  0.39796845  0.19855424    -0.31500
C157        C  0.86213293  0.43849662  0.27446273     0.02700
C158        C  0.89330019  0.44986169  0.28780748    -0.33200
H159        H  0.76666926  0.38599181  0.28013703     0.13800
H160        H  0.70463113  0.37164751  0.25309111     0.13600
H161        H  0.81433122  0.45479054  0.20619843     0.13400
H162        H  0.87629017  0.46910367  0.23320756     0.12500
C163        C  0.16987700  0.57371662  0.25784808     0.18800
C164        C  0.15885611  0.56194440  0.23588755    -0.10300
C165        C  0.19516176  0.57078078  0.22109865    -0.11200
C166        C  0.24265347  0.59134231  0.22819871     0.20400
C167        C  0.25373761  0.60348987  0.25012555    -0.13200
C168        C  0.21742845  0.59465696  0.26491599    -0.11500
C169        C  0.27983461  0.59971958  0.21298681     0.01300
C170        C  0.31033241  0.60681185  0.19986283    -0.31500
C171        C  0.13226118  0.56241707  0.27328230     0.02700
C172        C  0.10101131  0.55056087  0.28660419    -0.33200
H173        H  0.12220369  0.54552014  0.23025146     0.13800
H174        H  0.18617519  0.56128339  0.20417999     0.13600
H175        H  0.29032243  0.61944231  0.25580004     0.13400
H176        H  0.22634328  0.60368625  0.28187518     0.12500
C177        C  0.24303990  0.65364513  0.43909963     0.18800
C178        C  0.25470815  0.65580586  0.41707326    -0.10300
C179        C  0.21908557  0.62852344  0.40183754    -0.11200
C180        C  0.17165708  0.59890594  0.40856416     0.20400
C181        C  0.16003537  0.59662128  0.43059832    -0.13200
C182        C  0.19564526  0.62389361  0.44582873    -0.11500
C183        C  0.13464721  0.57248366  0.39278154     0.01300
C184        C  0.10340132  0.55287458  0.37940515    -0.31500
C185        C  0.27956779  0.68182092  0.45481601     0.02700
C186        C  0.30962263  0.70467899  0.46830607    -0.33200
H187        H  0.29122489  0.67868586  0.41168299     0.13800
H188        H  0.22842995  0.63080496  0.38482453     0.13600
H189        H  0.12344307  0.57408803  0.43596853     0.13400
H190        H  0.18620871  0.62194528  0.46281539     0.12500
C191        C  0.65100210  0.40672141  0.77186158     0.18800
C192        C  0.65463665  0.40023609  0.74959663    -0.10300
C193        C  0.62722886  0.40886710  0.73470641    -0.11200
C194        C  0.59599521  0.42395319  0.74200780     0.20400
C195        C  0.59206869  0.43001985  0.76428533    -0.13200
C196        C  0.61946173  0.42139098  0.77916794    -0.11500
C197        C  0.56963233  0.43522411  0.72661696     0.01300
C198        C  0.55006055  0.44728074  0.71352276    -0.31500
C199        C  0.67983384  0.39879861  0.78722363     0.02700
C200        C  0.70333862  0.39234020  0.80051928    -0.33200
H201        H  0.67888179  0.38889882  0.74375146     0.14700
H202        H  0.63076107  0.40428271  0.71751521     0.13600
H203        H  0.56824629  0.44189733  0.77012263     0.13400
H204        H  0.61633504  0.42651745  0.79634097     0.12500
C205        C  0.94935568  0.47621750  0.83256861     0.18800
C206        C  0.97400165  0.50891861  0.84932814    -0.10300
C207        C  0.02408373  0.53467938  0.84957374    -0.11200
C208        C  0.04980664  0.52788341  0.83305877     0.20400
C209        C  0.02516082  0.49525554  0.81627855    -0.13200
C210        C  0.97508589  0.46949840  0.81603288    -0.11500
C211        C  0.10139073  0.55399255  0.83340346     0.01300
C212        C  0.14457208  0.57523349  0.83359976    -0.31500
C213        C  0.89776394  0.44955252  0.83237354     0.02700
C214        C  0.85457064  0.42734365  0.83233810    -0.33200
H215        H  0.95452349  0.51443185  0.86220384     0.13800
H216        H  0.04271425  0.55976568  0.86264170     0.13600
H217        H  0.04463742  0.48965792  0.80342954     0.13400
H218        H  0.95646268  0.44433186  0.80299076     0.12500
C219        C  0.39990768  0.57295260  0.74252042     0.18800
C220        C  0.37802744  0.59899422  0.73634710    -0.10300
C221        C  0.35051028  0.60727532  0.75131025    -0.11200
C222        C  0.34468865  0.58946211  0.77248979     0.20400
C223        C  0.36681578  0.56369420  0.77868557    -0.13200
C224        C  0.39431343  0.55542622  0.76373729    -0.11500
C225        C  0.31622232  0.59765686  0.78792024     0.01300
C226        C  0.29336540  0.60468630  0.80133331    -0.31500
C227        C  0.42628505  0.56233217  0.72688850     0.02700
C228        C  0.44579182  0.55054552  0.71364741    -0.33200
H229        H  0.38188300  0.61248914  0.71994934     0.13800
H230        H  0.33361809  0.62730229  0.74635024     0.13600
H231        H  0.36261291  0.54980774  0.79502373     0.13400
H232        H  0.41083180  0.53502129  0.76865685     0.12500
C233        C  0.41442896  0.76059049  0.10737061     0.18800
C234        C  0.45859534  0.80337730  0.10711915    -0.10300
C235        C  0.46724768  0.83884460  0.09190055    -0.11200
C236        C  0.43177281  0.83175856  0.07685989     0.20400
C237        C  0.38748513  0.78906742  0.07717237    -0.13200
C238        C  0.37882097  0.75356863  0.09240965    -0.11500
C239        C  0.44157660  0.86778613  0.06076888     0.01300
C240        C  0.45249950  0.89826952  0.04713807    -0.31500
C241        C  0.40568359  0.72406393  0.12301482     0.02700
C242        C  0.39822106  0.69386683  0.13635741    -0.33200
H243        H  0.48635933  0.80923476  0.11862268     0.13800
H244        H  0.50167868  0.87163975  0.09176766     0.13600
H245        H  0.35984586  0.78312403  0.06558064     0.13400
H246        H  0.34450256  0.72064825  0.09247732     0.12500
C247        C  0.57195352  0.17538391  0.07468096     0.18800
C248        C  0.54859438  0.20162095  0.07253338    -0.10300
C249        C  0.55707884  0.23749707  0.08754702    -0.11200
C250        C  0.58896853  0.24728696  0.10477552     0.20400
C251        C  0.61259368  0.22128196  0.10684392    -0.13200
C252        C  0.60409680  0.18537633  0.09182270    -0.11500
C253        C  0.59698071  0.28350295  0.12049574     0.01300
C254        C  0.60391833  0.31328425  0.13401376    -0.31500
C255        C  0.56189740  0.13758081  0.05953417     0.02700
C256        C  0.55064330  0.10578638  0.04653576    -0.33200
H257        H  0.52358905  0.19410090  0.05935463     0.13800
H258        H  0.53859597  0.25735244  0.08580633     0.13600
H259        H  0.63730174  0.22855792  0.12012528     0.13400
H260        H  0.62226763  0.16524024  0.09365504     0.12500
C261        C  0.34849543  0.75398646  0.89606450     0.18800
C262        C  0.32905862  0.75441631  0.91630252    -0.10300
C263        C  0.35616101  0.79063365  0.93130988    -0.11200
C264        C  0.40284105  0.82658609  0.92616537     0.20400
C265        C  0.42252144  0.82585744  0.90602749    -0.13200
C266        C  0.39539998  0.78960110  0.89100941    -0.11500
C267        C  0.42961049  0.86496890  0.94130467     0.01300
C268        C  0.44913004  0.89693722  0.95436508    -0.31500
C269        C  0.31993107  0.71780750  0.88028698     0.02700
C270        C  0.29630140  0.68840108  0.86668920    -0.33200
H271        H  0.29283085  0.72711181  0.92037388     0.13800
H272        H  0.34053628  0.79093454  0.94681062     0.13600
H273        H  0.45851611  0.85354711  0.90185283     0.13400
H274        H  0.41076674  0.78963823  0.87539128     0.12500
C275        C  0.59999466  0.17544788  0.92630125     0.18800
C276        C  0.57742907  0.18276266  0.90854701    -0.10300
C277        C  0.60453081  0.21818732  0.89326719    -0.11200
C278        C  0.65429713  0.24641661  0.89566982     0.20400
C279        C  0.67676487  0.23945479  0.91355942    -0.13200
C280        C  0.64968242  0.20406690  0.92883094    -0.11500
C281        C  0.68232319  0.28181445  0.87957085     0.01300
C282        C  0.70509806  0.31079495  0.86573536    -0.31500
C283        C  0.57273828  0.13764076  0.94156187     0.02700
C284        C  0.55284600  0.10574162  0.95456763    -0.33200
H285        H  0.53906607  0.16079204  0.90639555     0.13800
H286        H  0.58677970  0.22325066  0.87948931     0.13600
H287        H  0.71519832  0.26103181  0.91558429     0.13400
H288        H  0.66752986  0.19865495  0.94247042     0.12500
loop_ 
_geom_bond_atom_site_label_1 
_geom_bond_atom_site_label_2 
_geom_bond_distance 
_geom_bond_site_symmetry_2 
_ccdc_geom_bond_type 
O1           Cu9   2.019   1_565  S
O1           C11   1.278       .  A
O2           Cu9   2.019   1_556  S
O2           C12   1.278       .  A
O3           Cu9   2.001   1_566  S
O3           C13   1.275       .  A
O4           Cu9   1.999       .  S
O4           C14   1.275       .  A
O5          Cu10   2.016       .  S
O5           C14   1.277       .  A
O6          Cu10   2.017   1_566  S
O6           C13   1.277       .  A
O7          Cu10   2.002   1_556  S
O7           C12   1.275       .  A
O8          Cu10   2.002   1_565  S
O8           C11   1.275       .  A
Cu9         Cu10   2.380       .  S
C11         C240   1.436       .  S
C12         C284   1.435       .  S
C13         C268   1.434       .  S
C14         C256   1.433       .  S
C15         C226   1.435       .  S
C15          N16   1.358       .  A
C15          N20   1.356       .  A
N16          C17   1.358       .  A
C17         C212   1.438       .  S
C17          N18   1.358       .  A
N18          C19   1.358       .  A
C19         C270   1.435       .  S
C19          N20   1.356       .  A
C21         C200   1.437       .  S
C21          N22   1.356       .  A
C21          N26   1.358       .  A
N22          C23   1.356       .  A
C23         C282   1.436       .  S
C23          N24   1.358       .  A
N24          C25   1.358       .  A
C25         C214   1.438       .  S
C25          N26   1.359       .  A
O27         Cu35   2.018       .  S
O27          C37   1.278       .  A
O28         Cu35   2.019   1_455  S
O28          C38   1.278       .  A
O29         Cu35   2.001       .  S
O29          C39   1.275       .  A
O30         Cu35   2.002   1_455  S
O30          C40   1.275       .  A
O31         Cu36   2.019   1_455  S
O31          C40   1.278       .  A
O32         Cu36   2.018       .  S
O32          C39   1.278       .  A
O33         Cu36   2.000   1_455  S
O33          C38   1.275       .  A
O34         Cu36   2.000       .  S
O34          C37   1.275       .  A
Cu35        Cu36   2.380       .  S
C37         C158   1.434       .  S
C38         C184   1.435       .  S
C39         C142   1.435       .  S
C40         C172   1.436       .  S
C41         C156   1.435       .  S
C41          N42   1.358       .  A
C41          N46   1.356       .  A
N42          C43   1.358       .  A
C43         C128   1.437       .  S
C43          N44   1.358       .  A
N44          C45   1.357       .  A
C45         C254   1.434       .  S
C45          N46   1.356       .  A
C47         C170   1.436       .  S
C47          N48   1.358       .  A
C47          N52   1.356       .  A
N48          C49   1.359       .  A
C49         C130   1.438       .  S
C49          N50   1.358       .  A
N50          C51   1.358       .  A
C51         C242   1.436       .  S
C51          N52   1.356       .  A
O53         Cu61   2.019       .  S
O53          C63   1.278       .  A
O54         Cu61   2.019       .  S
O54          C64   1.278       .  A
O55         Cu61   2.003       .  S
O55          C65   1.275       .  A
O56         Cu61   2.003       .  S
O56          C66   1.275       .  A
O57         Cu62   2.021       .  S
O57          C66   1.278       .  A
O58         Cu62   2.021       .  S
O58          C65   1.278       .  A
O59         Cu62   2.001       .  S
O59          C64   1.275       .  A
O60         Cu62   2.001       .  S
O60          C63   1.275       .  A
Cu61        Cu62   2.379       .  S
C63         C228   1.435       .  S
C64         C100   1.435       .  S
C65         C116   1.437       .  S
C66         C198   1.437       .  S
C67         C102   1.436       .  S
C67          N68   1.356       .  A
C67          N72   1.358       .  A
N68          C69   1.356       .  A
C69         C144   1.435       .  S
C69          N70   1.358       .  A
N70          C71   1.358       .  A
C71          C86   1.438       .  S
C71          N72   1.359       .  A
C73         C114   1.437       .  S
C73          N74   1.358       .  A
C73          N78   1.357       .  A
N74          C75   1.359       .  A
C75          C88   1.438       .  S
C75          N76   1.358       .  A
N76          C77   1.357       .  A
C77         C186   1.436       .  S
C77          N78   1.356       .  A
C79          C87   1.442       .  S
C79          C80   1.402       .  A
C79          C84   1.402       .  A
C80          C81   1.400   1_565  A
C80          H89   1.083       .  S
C81          C82   1.402       .  A
C81          H90   1.083       .  S
C82          C85   1.442       .  S
C82          C83   1.402       .  A
C83          C84   1.400   1_545  A
C83          H91   1.083       .  S
C84          H92   1.083       .  S
C85          C86   1.207       .  T
C87          C88   1.207       .  T
C93         C101   1.440       .  S
C93          C94   1.402       .  A
C93          C98   1.401       .  A
C94          C95   1.400       .  A
C94         H103   1.083       .  S
C95          C96   1.402       .  A
C95         H104   1.083       .  S
C96          C99   1.440       .  S
C96          C97   1.401       .  A
C97          C98   1.398       .  A
C97         H105   1.083       .  S
C98         H106   1.083       .  S
C99         C100   1.206       .  T
C101        C102   1.206       .  T
C107        C115   1.442       .  S
C107        C108   1.402       .  A
C107        C112   1.401       .  A
C108        C109   1.400       .  A
C108        H117   1.083       .  S
C109        C110   1.402       .  A
C109        H118   1.083       .  S
C110        C113   1.442       .  S
C110        C111   1.402       .  A
C111        C112   1.399       .  A
C111        H119   1.083       .  S
C112        H120   1.083       .  S
C113        C114   1.207       .  T
C115        C116   1.207       .  T
C121        C129   1.442       .  S
C121        C122   1.402       .  A
C121        C126   1.402       .  A
C122        C123   1.400       .  A
C122        H131   1.083       .  S
C123        C124   1.402       .  A
C123        H132   1.083       .  S
C124        C127   1.441       .  S
C124        C125   1.402       .  A
C125        C126   1.400       .  A
C125        H133   1.083       .  S
C126        H134   1.083       .  S
C127        C128   1.207       .  T
C129        C130   1.207       .  T
C135        C143   1.440       .  S
C135        C136   1.402       .  A
C135        C140   1.401       .  A
C136        C137   1.400       .  A
C136        H145   1.083       .  S
C137        C138   1.402       .  A
C137        H146   1.083       .  S
C138        C141   1.440       .  S
C138        C139   1.401       .  A
C139        C140   1.398       .  A
C139        H147   1.083       .  S
C140        H148   1.084       .  S
C141        C142   1.206       .  T
C143        C144   1.206       .  T
C149        C157   1.439       .  S
C149        C150   1.402       .  A
C149        C154   1.401       .  A
C150        C151   1.400       .  A
C150        H159   1.083       .  S
C151        C152   1.402       .  A
C151        H160   1.083       .  S
C152        C155   1.439       .  S
C152        C153   1.401       .  A
C153        C154   1.398       .  A
C153        H161   1.084       .  S
C154        H162   1.083       .  S
C155        C156   1.206       .  T
C157        C158   1.206       .  T
C163        C171   1.441       .  S
C163        C164   1.401       .  A
C163        C168   1.402       .  A
C164        C165   1.399       .  A
C164        H173   1.083       .  S
C165        C166   1.402       .  A
C165        H174   1.083       .  S
C166        C169   1.441       .  S
C166        C167   1.401       .  A
C167        C168   1.399       .  A
C167        H175   1.083       .  S
C168        H176   1.083       .  S
C169        C170   1.206       .  T
C171        C172   1.206       .  T
C177        C185   1.440       .  S
C177        C178   1.401       .  A
C177        C182   1.401       .  A
C178        C179   1.399       .  A
C178        H187   1.083       .  S
C179        C180   1.402       .  A
C179        H188   1.083       .  S
C180        C183   1.440       .  S
C180        C181   1.401       .  A
C181        C182   1.399       .  A
C181        H189   1.083       .  S
C182        H190   1.084       .  S
C183        C184   1.206       .  T
C185        C186   1.206       .  T
C191        C199   1.441       .  S
C191        C192   1.401       .  A
C191        C196   1.402       .  A
C192        C193   1.400       .  A
C192        H201   1.083       .  S
C193        C194   1.402       .  A
C193        H202   1.083       .  S
C194        C197   1.442       .  S
C194        C195   1.401       .  A
C195        C196   1.399       .  A
C195        H203   1.083       .  S
C196        H204   1.083       .  S
C197        C198   1.207       .  T
C199        C200   1.207       .  T
C205        C213   1.442       .  S
C205        C206   1.402       .  A
C205        C210   1.402       .  A
C206        C207   1.400   1_655  A
C206        H215   1.083       .  S
C207        C208   1.402       .  A
C207        H216   1.083       .  S
C208        C211   1.442       .  S
C208        C209   1.402       .  A
C209        C210   1.400   1_455  A
C209        H217   1.083       .  S
C210        H218   1.083       .  S
C211        C212   1.207       .  T
C213        C214   1.207       .  T
C219        C227   1.440       .  S
C219        C220   1.402       .  A
C219        C224   1.401       .  A
C220        C221   1.400       .  A
C220        H229   1.083       .  S
C221        C222   1.402       .  A
C221        H230   1.083       .  S
C222        C225   1.440       .  S
C222        C223   1.401       .  A
C223        C224   1.398       .  A
C223        H231   1.084       .  S
C224        H232   1.083       .  S
C225        C226   1.206       .  T
C227        C228   1.206       .  T
C233        C241   1.440       .  S
C233        C234   1.401       .  A
C233        C238   1.402       .  A
C234        C235   1.399       .  A
C234        H243   1.083       .  S
C235        C236   1.401       .  A
C235        H244   1.084       .  S
C236        C239   1.440       .  S
C236        C237   1.401       .  A
C237        C238   1.400       .  A
C237        H245   1.083       .  S
C238        H246   1.083       .  S
C239        C240   1.206       .  T
C241        C242   1.206       .  T
C247        C255   1.438       .  S
C247        C248   1.401       .  A
C247        C252   1.401       .  A
C248        C249   1.398       .  A
C248        H257   1.084       .  S
C249        C250   1.400       .  A
C249        H258   1.083       .  S
C250        C253   1.438       .  S
C250        C251   1.402       .  A
C251        C252   1.399       .  A
C251        H259   1.083       .  S
C252        H260   1.083       .  S
C253        C254   1.205       .  T
C255        C256   1.205       .  T
C261        C269   1.440       .  S
C261        C262   1.401       .  A
C261        C266   1.402       .  A
C262        C263   1.398       .  A
C262        H271   1.083       .  S
C263        C264   1.401       .  A
C263        H272   1.084       .  S
C264        C267   1.439       .  S
C264        C265   1.401       .  A
C265        C266   1.399       .  A
C265        H273   1.083       .  S
C266        H274   1.083       .  S
C267        C268   1.206       .  T
C269        C270   1.206       .  T
C275        C283   1.440       .  S
C275        C276   1.401       .  A
C275        C280   1.402       .  A
C276        C277   1.400       .  A
C276        H285   1.083       .  S
C277        C278   1.402       .  A
C277        H286   1.083       .  S
C278        C281   1.440       .  S
C278        C279   1.401       .  A
C279        C280   1.399       .  A
C279        H287   1.083       .  S
C280        H288   1.084       .  S
C281        C282   1.206       .  T
C283        C284   1.206       .  T
