geometry optimzed in LAMMPS
_audit_creation_date              2020-11-30 
_audit_creation_method            'lammps2cif' 
_symmetry_space_group_name_H-M    'P1' 
_symmetry_Int_Tables_number       1 
_symmetry_cell_setting            triclinic 
loop_ 
_symmetry_equiv_pos_as_xyz 
  x,y,z 
_cell_length_a                    28.82809283 
_cell_length_b                    35.715629087434316 
_cell_length_c                    25.152159958134657 
_cell_angle_alpha                 90.2632088009759 
_cell_angle_beta                  93.13616385494267 
_cell_angle_gamma                 90.00739441831992 
loop_ 
_atom_site_label 
_atom_site_type_symbol 
_atom_site_fract_x 
_atom_site_fract_y 
_atom_site_fract_z 
_atom_site_charge 
C1          C  0.75202962  0.22653934  0.97954227     0.80100
N2          N  0.76692077  0.21073838  0.93421481    -0.78200
C3          C  0.79822882  0.18219435  0.93621350     0.82600
N4          N  0.81475038  0.16952778  0.98460691    -0.78100
C5          C  0.80033194  0.18488610  0.03040486     0.82700
N6          N  0.76885153  0.21322699  0.02741082    -0.79800
C7          C  0.20392629  0.84911878  0.04403856     0.80100
N8          N  0.18955555  0.86668803  0.08814000    -0.78200
C9          C  0.15942629  0.89592638  0.08414049     0.82600
N10         N  0.14363835  0.90752721  0.03486256    -0.78100
C11         C  0.15808381  0.89050064  0.99009442     0.82700
N12         N  0.18809368  0.86127849  0.99528705    -0.79800
O13         O  0.41377704  0.61686585  0.98801512    -0.81000
O14         O  0.52240796  0.46957794  0.96707838    -0.65700
O15         O  0.42764530  0.53975267  0.99852438    -1.12300
C16         C  0.53030254  0.56831893  0.14822564     1.05900
O17         O  0.52413186  0.45003632  0.05032055    -0.78900
O18         O  0.47947626  0.48287708  0.12763775    -0.66500
Ni19       Ni  0.40134722  0.57248770  0.94577466     1.34900
C20         C  0.44029867  0.49863869  0.13036950     0.84700
O21         O  0.43894875  0.48553806  0.91890017    -0.79400
O22         O  0.38687708  0.53093439  0.89882897    -0.89700
C23         C  0.53398834  0.44537310  0.00214867     0.84200
O24         O  0.45574554  0.58283283  0.90916417    -0.67900
O25         O  0.54753351  0.53588419  0.14075111    -0.87200
C26         C  0.49518859  0.56739318  0.90742272     0.85100
C27         C  0.40517839  0.49906750  0.88989152     1.06600
H28         H  0.53364897  0.54134778  0.02802709     0.38400
O29         O  0.50811206  0.52680882  0.04034625    -1.09800
O30         O  0.42931462  0.52859526  0.10550800    -0.66500
Ni31       Ni  0.46128124  0.56145837  0.05873015     1.26300
O32         O  0.50657367  0.53833569  0.93404109    -0.66700
O33         O  0.49698715  0.58193121  0.11879530    -0.79000
C34         C  0.40445371  0.62214903  0.03625422     0.84400
O35         O  0.41392604  0.59740726  0.07116450    -0.66200
Ni36       Ni  0.53459728  0.49433853  0.09319857     1.27400
Ni37       Ni  0.47454257  0.50525524  0.97989967     1.26100
H38         H  0.40214331  0.52523123  0.01095064     0.39000
C39         C  0.25413642  0.33594817  0.48616850     0.80100
N40         N  0.26935956  0.35164908  0.44134176    -0.78200
C41         C  0.29807436  0.38180696  0.44372113     0.82600
N42         N  0.31181230  0.39629594  0.49231420    -0.78100
C43         C  0.29668051  0.38105202  0.53783439     0.82700
N44         N  0.26799407  0.35082151  0.53428425    -0.79800
C45         C  0.69056151  0.71970237  0.55234055     0.80100
N46         N  0.67923856  0.70183162  0.59732181    -0.78200
C47         C  0.64865823  0.67283576  0.59532947     0.82600
N48         N  0.62946671  0.66162914  0.54719215    -0.78100
C49         C  0.64017112  0.67939272  0.50173059     0.82700
N50         N  0.67067203  0.70839894  0.50475249    -0.79800
O51         O  0.02468066  0.11095604  0.54371309    -0.81000
O52         O  0.91078671  0.96723080  0.56160576    -0.65700
O53         O  0.00826437  0.03470480  0.53051206    -1.12300
C54         C  0.90829785  0.06587114  0.38043787     1.05900
O55         O  0.90697304  0.94718335  0.47802409    -0.78900
O56         O  0.95721354  0.97801574  0.40269352    -0.66500
Ni57       Ni  0.03668294  0.06614557  0.58395402     1.34900
C58         C  0.99539099  0.99505760  0.39822411     0.84700
O59         O  0.99519429  0.98053327  0.60977577    -0.79400
O60         O  0.05065276  0.02371775  0.62849959    -0.89700
C61         C  0.89808730  0.94304377  0.52665207     0.84200
O62         O  0.98351784  0.07745967  0.62244326    -0.67900
O63         O  0.89189767  0.03294418  0.38607512    -0.87200
C64         C  0.94300752  0.06383108  0.62329518     0.85100
C65         C  0.03085623  0.99253772  0.63742057     1.06600
H66         H  0.90178207  0.03850924  0.50109854     0.38400
O67         O  0.92723045  0.02383032  0.48873593    -1.09800
O68         O  0.00540781  0.02561124  0.42246522    -0.66500
Ni69       Ni  0.97504977  0.05803714  0.47141966     1.26300
O70         O  0.92963790  0.03556114  0.59560408    -0.66700
O71         O  0.93959454  0.08001985  0.41242933    -0.79000
C72         C  0.03642222  0.11619517  0.49647104     0.84400
O73         O  0.02398294  0.09310233  0.45993845    -0.66200
Ni74       Ni  0.90114426  0.99156776  0.43458913     1.27400
Ni75       Ni  0.96007723  0.00146096  0.54903093     1.26100
H76         H  0.03286869  0.01952663  0.51712463     0.39000
C77         C  0.78637242  0.78807297  0.59880622    -0.27700
C78         C  0.78401310  0.81400523  0.55717329     0.01900
C79         C  0.75129153  0.80888071  0.51430944     0.30000
C80         C  0.72137422  0.77807279  0.51328138    -0.19500
C81         C  0.72323226  0.75190648  0.55492554    -0.28900
C82         C  0.75627048  0.75714007  0.59802322     0.44000
C83         C  0.81711691  0.84551675  0.55667439     0.05200
O84         O  0.74881438  0.83366796  0.47276280    -0.57400
H85         H  0.69639169  0.77488245  0.47980567     0.18200
O86         O  0.76107553  0.73129915  0.63812468    -0.64100
H87         H  0.81209390  0.79149868  0.63151905     0.16600
C88         C  0.80918346  0.87903459  0.58439746     0.28900
C89         C  0.83774825  0.91027868  0.57726379    -0.25000
C90         C  0.87367083  0.90857501  0.54172155    -0.24300
C91         C  0.88276316  0.87431644  0.51616375     0.40300
C92         C  0.85454570  0.84319954  0.52367803    -0.26800
O93         O  0.77254170  0.88193775  0.61673835    -0.58600
H94         H  0.83016467  0.93639118  0.59709039     0.15900
O95         O  0.91834465  0.87127014  0.48236259    -0.60100
H96         H  0.86091988  0.81747052  0.50226422     0.14400
H97         H  0.74852745  0.74362650  0.66969146     0.46200
H98         H  0.74534477  0.88831264  0.59261711     0.41600
H99         H  0.94637588  0.86586137  0.50568078     0.45100
H100        H  0.72503324  0.85227865  0.48211435     0.36600
C101        C  0.16459817  0.26381928  0.43493852    -0.27700
C102        C  0.16055204  0.24155187  0.48011614     0.01900
C103        C  0.18883359  0.24931662  0.52630136     0.30000
C104        C  0.21941622  0.27979703  0.52738818    -0.19500
C105        C  0.22254744  0.30302107  0.48280019    -0.28900
C106        C  0.19497240  0.29445407  0.43602732     0.44000
C107        C  0.12544283  0.21122820  0.47970638     0.05200
O108        O  0.18775603  0.22647051  0.56997518    -0.57400
H109        H  0.24080354  0.28516148  0.56338254     0.18200
O110        O  0.19637520  0.31623588  0.39144352    -0.64100
H111        H  0.14305870  0.25811127  0.39915470     0.16600
C112        C  0.09126751  0.21120762  0.51748499     0.28900
C113        C  0.06128010  0.18077274  0.52061963    -0.25000
C114        C  0.06384879  0.15011683  0.48567218    -0.24300
C115        C  0.09581557  0.15131440  0.44519690     0.40300
C116        C  0.12634236  0.18184291  0.44240264    -0.26800
O117        O  0.08746627  0.24057728  0.55230860    -0.58600
H118        H  0.03639842  0.18088353  0.55139756     0.15900
O119        O  0.09895140  0.12222553  0.40978655    -0.60100
H120        H  0.15193157  0.18188120  0.41241703     0.14400
H121        H  0.17322298  0.33633036  0.39628380     0.46200
H122        H  0.06600356  0.25850534  0.53368891     0.41600
H123        H  0.12270124  0.10514616  0.42624415     0.45100
H124        H  0.17445412  0.24190941  0.59827124     0.36600
C125        C  0.35568393  0.48660195  0.23919872    -0.27700
C126        C  0.36187402  0.44845686  0.25079296     0.01900
C127        C  0.38814138  0.42615095  0.21749021     0.30000
C128        C  0.41072127  0.44256234  0.17573631    -0.19500
C129        C  0.40745063  0.48127936  0.16624302    -0.28900
C130        C  0.37776524  0.50302126  0.19674864     0.44000
C131        C  0.34422039  0.43258984  0.29998431     0.05200
O132        O  0.39396409  0.38862893  0.22719004    -0.57400
H133        H  0.43269649  0.42517456  0.15221455     0.18200
O134        O  0.37318191  0.54079010  0.18844912    -0.64100
H135        H  0.33501531  0.50391602  0.26430961     0.16600
C136        C  0.36355556  0.44348949  0.35021320     0.28900
C137        C  0.34832940  0.42681112  0.39647871    -0.25000
C138        C  0.31377226  0.39891122  0.39369013    -0.24300
C139        C  0.29492084  0.38782952  0.34273457     0.40300
C140        C  0.31007110  0.40476316  0.29669073    -0.26800
O141        O  0.39896501  0.46917321  0.35425603    -0.58600
H142        H  0.36414166  0.43553444  0.43458735     0.15900
O143        O  0.26120693  0.36084562  0.33705038    -0.60100
H144        H  0.29531103  0.39591137  0.25810830     0.14400
H145        H  0.34540163  0.54345315  0.16371122     0.46200
H146        H  0.38370776  0.49349438  0.36093521     0.41600
H147        H  0.27809995  0.33725694  0.33025182     0.45100
H148        H  0.42195934  0.38687573  0.25178532     0.36600
C149        C  0.39517690  0.43035030  0.77268670    -0.27700
C150        C  0.35570864  0.44400696  0.74397325     0.01900
C151        C  0.33114666  0.47418694  0.76487548     0.30000
C152        C  0.34660626  0.49074943  0.81323351    -0.19500
C153        C  0.38691267  0.47786530  0.84181038    -0.28900
C154        C  0.41090248  0.44695224  0.82108974     0.44000
C155        C  0.34106425  0.42743395  0.69146525     0.05200
O156        O  0.29254498  0.48832331  0.73764982    -0.57400
H157        H  0.32734925  0.51439282  0.82771160     0.18200
O158        O  0.45024121  0.43307152  0.84706974    -0.64100
H159        H  0.41425452  0.40696944  0.75711264     0.16600
C160        C  0.36884011  0.43123071  0.64750575     0.28900
C161        C  0.35375491  0.41655253  0.59767213    -0.25000
C162        C  0.31136194  0.39714117  0.59090273    -0.24300
C163        C  0.28363109  0.39334427  0.63529168     0.40300
C164        C  0.29849941  0.40854883  0.68484877    -0.26800
O165        O  0.41011812  0.45035227  0.65250671    -0.58600
H166        H  0.37565383  0.41998988  0.56438005     0.15900
O167        O  0.24161590  0.37526478  0.63072248    -0.60100
H168        H  0.27669229  0.40558639  0.71833066     0.14400
H169        H  0.47643646  0.44595278  0.83084143     0.46200
H170        H  0.43417542  0.43088626  0.65953049     0.41600
H171        H  0.21862237  0.39496448  0.62050861     0.45100
H172        H  0.30466481  0.50613744  0.71163474     0.36600
C173        C  0.59977037  0.67702543  0.35495058    -0.27300
C174        C  0.58894974  0.63903870  0.34774080     0.01900
C175        C  0.59210326  0.61493216  0.39191832     0.30000
C176        C  0.60744655  0.62863662  0.44208581    -0.19500
C177        C  0.62025176  0.66638693  0.44912856    -0.28900
C178        C  0.61553247  0.69076658  0.40503673     0.44000
C179        C  0.57592201  0.62429448  0.29383619     0.05200
O180        O  0.58089948  0.57774874  0.38623243    -0.57400
H181        H  0.61054158  0.60937104  0.47523707     0.18200
O182        O  0.62520396  0.72822957  0.41064169    -0.64100
H183        H  0.59702197  0.69593074  0.32135929     0.16600
C184        C  0.53474309  0.63555593  0.26583563     0.28900
C185        C  0.52118643  0.61841636  0.21712254    -0.25000
C186        C  0.54867568  0.59027901  0.19524096    -0.24300
C187        C  0.59173576  0.58123787  0.22173135     0.40300
C188        C  0.60463803  0.59781885  0.27081749    -0.26800
O189        O  0.50612272  0.66154965  0.28737179    -0.58600
H190        H  0.48813876  0.62611366  0.19763631     0.15900
O191        O  0.62117548  0.55563519  0.20070223    -0.60100
H192        H  0.63704955  0.58965115  0.29140012     0.14400
H193        H  0.65633962  0.73155792  0.39639213     0.46200
H194        H  0.51412915  0.68564746  0.27071430     0.41600
H195        H  0.63954278  0.57006772  0.17561292     0.45100
H196        H  0.54701832  0.57643328  0.39101002     0.36600
C197        C  0.63353096  0.65192201  0.74208500    -0.27700
C198        C  0.60316368  0.62138025  0.73844881     0.01900
C199        C  0.58967758  0.60647852  0.68815792     0.30000
C200        C  0.60558826  0.62290295  0.64209405    -0.19500
C201        C  0.63512016  0.65435857  0.64521170    -0.28900
C202        C  0.64949381  0.66846877  0.69623588     0.44000
C203        C  0.58091475  0.60853992  0.78655820     0.05200
O204        O  0.55834700  0.57757250  0.68351638    -0.57400
H205        H  0.59370961  0.61142318  0.60380607     0.18200
O206        O  0.67816651  0.69899031  0.70215112    -0.64100
H207        H  0.64372211  0.66377649  0.78071981     0.16600
C208        C  0.58764439  0.57213714  0.80655971     0.28900
C209        C  0.56146226  0.55962157  0.84830919    -0.25000
C210        C  0.52819863  0.58307587  0.87030017    -0.24300
C211        C  0.52373065  0.62032525  0.85208256     0.40300
C212        C  0.55020917  0.63276647  0.81079417    -0.26800
O213        O  0.61857302  0.54827792  0.78446018    -0.58600
H214        H  0.56566455  0.53097438  0.86171882     0.15900
O215        O  0.49339239  0.64478176  0.87411444    -0.60100
H216        H  0.54532369  0.66105955  0.79611862     0.14400
H217        H  0.65708502  0.72081718  0.70445824     0.46200
H218        H  0.64890591  0.55371091  0.80343254     0.41600
H219        H  0.46607300  0.64590262  0.84841382     0.45100
H220        H  0.57721277  0.55488552  0.67750163     0.36600
C221        C  0.05390673  0.92890011  0.30386466    -0.27700
C222        C  0.08123632  0.95383575  0.27598827     0.01900
C223        C  0.08370218  0.99161374  0.29226778     0.30000
C224        C  0.05757651  0.00424669  0.33415657    -0.19500
C225        C  0.02839638  0.97969657  0.36039605    -0.28900
C226        C  0.02778520  0.94145918  0.34575714     0.44000
C227        C  0.10436300  0.94064355  0.22792334     0.05200
O228        O  0.11048743  0.01668407  0.26642164    -0.57400
H229        H  0.05860774  0.03373527  0.34448253     0.18200
O230        O  0.00065124  0.91625605  0.37091718    -0.64100
H231        H  0.05136201  0.89978615  0.29179368     0.16600
C232        C  0.13381772  0.90922963  0.22975943     0.28900
C233        C  0.15254213  0.89585447  0.18305284    -0.25000
C234        C  0.14197079  0.91301539  0.13348763    -0.24300
C235        C  0.11365030  0.94534040  0.13222401     0.40300
C236        C  0.09498431  0.95864529  0.17900128    -0.26800
O237        O  0.14526511  0.89189627  0.27726792    -0.58600
H238        H  0.17470035  0.87137591  0.18579909     0.15900
O239        O  0.10312221  0.96390405  0.08552101    -0.60100
H240        H  0.07215107  0.98274783  0.17679864     0.14400
H241        H  0.01938463  0.90873105  0.40335896     0.46200
H242        H  0.12797248  0.86786904  0.27588161     0.41600
H243        H  0.12836064  0.98253722  0.08262635     0.45100
H244        H  0.14192037  0.01468772  0.28425401     0.36600
C245        C  0.04074070  0.92960842  0.76008945    -0.27700
C246        C  0.08546143  0.93884717  0.78116824     0.01900
C247        C  0.11323118  0.96288971  0.75226244     0.30000
C248        C  0.09574764  0.97839728  0.70428071    -0.19500
C249        C  0.05028903  0.97054317  0.68382724    -0.28900
C250        C  0.02321166  0.94494956  0.71162070     0.44000
C251        C  0.10253896  0.92494599  0.83435637     0.05200
O252        O  0.15703573  0.97257026  0.77161779    -0.57400
H253        H  0.11759653  0.99765543  0.68380509     0.18200
O254        O  0.97864800  0.93648743  0.69370363    -0.64100
H255        H  0.01905244  0.91093524  0.78177506     0.16600
C256        C  0.08061668  0.93555809  0.88074108     0.28900
C257        C  0.09926703  0.92457387  0.93097920    -0.25000
C258        C  0.13972825  0.90252892  0.93615825    -0.24300
C259        C  0.16163191  0.89196747  0.88930758     0.40300
C260        C  0.14295505  0.90310750  0.83920646    -0.26800
O261        O  0.04212405  0.95816264  0.87750664    -0.58600
H262        H  0.08175291  0.93330885  0.96597475     0.15900
O263        O  0.20169775  0.87119716  0.89173205    -0.60100
H264        H  0.16045930  0.89501262  0.80388182     0.14400
H265        H  0.98130997  0.91319827  0.67246381     0.46200
H266        H  0.01529436  0.94093700  0.87942583     0.41600
H267        H  0.22724981  0.88975794  0.89586186     0.45100
H268        H  0.15256989  0.99426518  0.79555830     0.36600
C269        C  0.36495786  0.72268843  0.02804398    -0.27700
C270        C  0.32880120  0.72272712  0.06296068     0.01900
C271        C  0.32176179  0.69113607  0.09477484     0.30000
C272        C  0.34892081  0.65895851  0.08860488    -0.19500
C273        C  0.38290373  0.65802412  0.05065565    -0.28900
C274        C  0.39209969  0.69080932  0.02195409     0.44000
C275        C  0.29561450  0.75416899  0.06041453     0.05200
O276        O  0.28600051  0.69036493  0.12852138    -0.57400
H277        H  0.34137982  0.63402718  0.11095599     0.18200
O278        O  0.42623911  0.69150513  0.98605016    -0.64100
H279        H  0.37088822  0.74704838  0.00377570     0.16600
C280        C  0.29294543  0.78006771  0.10231071     0.28900
C281        C  0.26280588  0.81077379  0.09671214    -0.25000
C282        C  0.23527190  0.81621070  0.04932039    -0.24300
C283        C  0.23764038  0.78958226  0.00785550     0.40300
C284        C  0.26781675  0.75913579  0.01356831    -0.26800
O285        O  0.32009380  0.77592863  0.14840526    -0.58600
H286        H  0.26158677  0.83068212  0.12922784     0.15900
O287        O  0.21046294  0.79271489  0.96160958    -0.60100
H288        H  0.26958214  0.73917934  0.98113928     0.14400
H289        H  0.45518316  0.69774055  0.00737757     0.46200
H290        H  0.35010479  0.78799339  0.14130784     0.41600
H291        H  0.18074614  0.78027797  0.96899410     0.45100
H292        H  0.30036016  0.69703062  0.16402594     0.36600
C293        C  0.87389248  0.13671080  0.14106033    -0.27700
C294        C  0.84493876  0.13952657  0.18400559     0.01900
C295        C  0.80202881  0.15806170  0.17655696     0.30000
C296        C  0.78856383  0.17334550  0.12680041    -0.19500
C297        C  0.81689300  0.16982504  0.08324372    -0.28900
C298        C  0.86019852  0.15152545  0.09101722     0.44000
C299        C  0.85951618  0.12243439  0.23608640     0.05200
O300        O  0.77360433  0.16224133  0.21818569    -0.57400
H301        H  0.75529438  0.18739090  0.12213948     0.18200
O302        O  0.88960860  0.14808477  0.05021714    -0.64100
H303        H  0.90706023  0.12254490  0.14623100     0.16600
C304        C  0.83431572  0.09258565  0.25667272     0.28900
C305        C  0.84967751  0.07560635  0.30453529    -0.25000
C306        C  0.89046365  0.08767763  0.33301110    -0.24300
C307        C  0.91499837  0.11839535  0.31294170     0.40300
C308        C  0.89959302  0.13527621  0.26476506    -0.26800
O309        O  0.79514927  0.07914645  0.22960366    -0.58600
H310        H  0.82986475  0.05229197  0.31880337     0.15900
O311        O  0.95446756  0.13182395  0.33938141    -0.60100
H312        H  0.91921626  0.15836648  0.24950060     0.14400
H313        H  0.90817660  0.17148111  0.05128672     0.46200
H314        H  0.80616260  0.05867904  0.20669366     0.41600
H315        H  0.98050307  0.11847430  0.32339877     0.45100
H316        H  0.74711513  0.14501305  0.21024010     0.36600
C317        C  0.81520554  0.15984078  0.78949491    -0.27700
C318        C  0.84378267  0.12813387  0.79358182     0.01900
C319        C  0.85726796  0.11433471  0.84441016     0.30000
C320        C  0.84222372  0.13222808  0.89007255    -0.19500
C321        C  0.81342726  0.16406916  0.88638435    -0.28900
C322        C  0.79986989  0.17768423  0.83506807     0.44000
C323        C  0.86305446  0.11194444  0.74501468     0.05200
O324        O  0.88762398  0.08483380  0.84993499    -0.57400
H325        H  0.85372244  0.12114100  0.92857237     0.18200
O326        O  0.77295287  0.20910951  0.82863115    -0.64100
H327        H  0.80509760  0.17111263  0.75063786     0.16600
C328        C  0.85873701  0.07353892  0.73240745     0.28900
C329        C  0.88266223  0.05838859  0.69027759    -0.25000
C330        C  0.91109944  0.08114064  0.66033764    -0.24300
C331        C  0.91275201  0.11996707  0.67069885     0.40300
C332        C  0.88855499  0.13508405  0.71244784    -0.26800
O333        O  0.83241944  0.05039159  0.76199609    -0.58600
H334        H  0.88083773  0.02850880  0.68276902     0.15900
O335        O  0.93815525  0.14333973  0.64032109    -0.60100
H336        H  0.89152644  0.16478646  0.72095521     0.14400
H337        H  0.74125578  0.19971754  0.81872657     0.46200
H338        H  0.80018378  0.05318685  0.74668007     0.41600
H339        H  0.96699905  0.14883409  0.66229017     0.45100
H340        H  0.86908016  0.06370288  0.86294593     0.36600
C341        C  0.58003524  0.34635088  0.00904160    -0.27700
C342        C  0.61807677  0.34859328  0.97676821     0.01900
C343        C  0.62441703  0.38144706  0.94702536     0.30000
C344        C  0.59460187  0.41215193  0.95248444    -0.19500
C345        C  0.55883137  0.41079066  0.98813281    -0.28900
C346        C  0.55089742  0.37714725  0.01532584     0.44000
C347        C  0.65214739  0.31733586  0.97708945     0.05200
O348        O  0.66088036  0.38449985  0.91449972    -0.57400
H349        H  0.60123152  0.43779296  0.93131849     0.18200
O350        O  0.51464498  0.37411985  0.04822291    -0.64100
H351        H  0.57366787  0.32090725  0.03077410     0.16600
C352        C  0.67314069  0.30423975  0.02536399     0.28900
C353        C  0.70544130  0.27498275  0.02526222    -0.25000
C354        C  0.71747675  0.25779910  0.97746161    -0.24300
C355        C  0.69612316  0.27101388  0.92905466     0.40300
C356        C  0.66383579  0.30040307  0.92927583    -0.26800
O357        O  0.66368549  0.32092395  0.07282783    -0.58600
H358        H  0.72121435  0.26593510  0.06311143     0.15900
O359        O  0.70562942  0.25511193  0.88121475    -0.60100
H360        H  0.64756537  0.30981606  0.89184408     0.14400
H361        H  0.52885625  0.37634125  0.08492111     0.46200
H362        H  0.64354040  0.30295363  0.09076427     0.41600
H363        H  0.72811777  0.27231217  0.86551028     0.45100
H364        H  0.68741701  0.39341991  0.93795285     0.36600
loop_ 
_geom_bond_atom_site_label_1 
_geom_bond_atom_site_label_2 
_geom_bond_distance 
_geom_bond_site_symmetry_2 
_ccdc_geom_bond_type 
C1            N2   1.360       .  A
C1            N6   1.361   1_556  A
C1          C354   1.496       .  S
N2            C3   1.361       .  A
C3            N4   1.362       .  A
C3          C321   1.495       .  S
N4            C5   1.359   1_556  A
C5            N6   1.359       .  A
C5          C297   1.490       .  S
C7            N8   1.356       .  A
C7           N12   1.358   1_554  A
C7          C282   1.485       .  S
N8            C9   1.359       .  A
C9           N10   1.363       .  A
C9          C234   1.493       .  S
N10          C11   1.362   1_554  A
C11          N12   1.358       .  A
C11         C258   1.494       .  S
O13         Ni19   1.927       .  S
O13          C34   1.270   1_556  A
O14         Ni37   1.918       .  S
O14          C23   1.270   1_556  A
O15         Ni19   1.899       .  S
O15         Ni37   1.905       .  S
O15         Ni31   1.914   1_556  S
O15          H38   0.966   1_556  S
C16         C186   1.489       .  S
C16          O33   1.278       .  A
C16          O25   1.278       .  A
O17         Ni36   1.925       .  S
O17          C23   1.270       .  A
O18         Ni36   1.896       .  S
O18          C20   1.267       .  A
Ni19         O22   1.924       .  S
Ni19         O24   1.899       .  S
C20         C129   1.481       .  S
C20          O30   1.273       .  A
O21         Ni37   1.929       .  S
O21          C27   1.280       .  A
O22          C27   1.279       .  A
C23         C345   1.479   1_554  S
O24          C26   1.267       .  A
O25         Ni36   1.925       .  S
C26         C210   1.481       .  S
C26          O32   1.271       .  A
C27         C153   1.495       .  S
H28          O29   0.966       .  S
O29         Ni37   1.915   1_554  S
O29         Ni31   1.906       .  S
O29         Ni36   1.897       .  S
O30         Ni31   1.934       .  S
Ni31         O35   1.911       .  S
Ni31         O33   1.923       .  S
O32         Ni37   1.926       .  S
C34         C273   1.476       .  S
C34          O35   1.268       .  A
C39          N40   1.356       .  A
C39          N44   1.359       .  A
C39         C105   1.487       .  S
N40          C41   1.357       .  A
C41          N42   1.364       .  A
C41         C138   1.494       .  S
N42          C43   1.363       .  A
C43          N44   1.360       .  A
C43         C162   1.491       .  S
C45          N46   1.357       .  A
C45          N50   1.358       .  A
C45          C81   1.485       .  S
N46          C47   1.359       .  A
C47          N48   1.362       .  A
C47         C201   1.491       .  S
N48          C49   1.360       .  A
C49          N50   1.358       .  A
C49         C177   1.486       .  S
O51         Ni57   1.919       .  S
O51          C72   1.268       .  A
O52         Ni75   1.915   1_565  S
O52          C61   1.269       .  A
O53         Ni57   1.899       .  S
O53         Ni75   1.906   1_455  S
O53         Ni69   1.917   1_455  S
O53          H76   0.967       .  S
C54         C306   1.495       .  S
C54          O71   1.278       .  A
C54          O63   1.279       .  A
O55         Ni74   1.931       .  S
O55          C61   1.273       .  A
O56         Ni74   1.905       .  S
O56          C58   1.268       .  A
Ni57         O60   1.918       .  S
Ni57         O62   1.900   1_455  S
C58         C225   1.485   1_655  S
C58          O68   1.273   1_665  A
O59         Ni75   1.939   1_565  S
O59          C65   1.282   1_655  A
O60          C65   1.278   1_545  A
C61          C90   1.479       .  S
O62          C64   1.266       .  A
O63         Ni74   1.930   1_545  S
C64         C330   1.478       .  S
C64          O70   1.272       .  A
C65         C249   1.493       .  S
H66          O67   0.966       .  S
O67         Ni75   1.921       .  S
O67         Ni69   1.911       .  S
O67         Ni74   1.903   1_545  S
O68         Ni69   1.931   1_455  S
Ni69         O73   1.921   1_655  S
Ni69         O71   1.926       .  S
O70         Ni75   1.930       .  S
C72         C114   1.481       .  S
C72          O73   1.269       .  A
C77          C78   1.400       .  A
C77          C82   1.404       .  A
C77          H87   1.084       .  S
C78          C83   1.476       .  S
C78          C79   1.404       .  A
C79          C80   1.397       .  A
C79          O84   1.372       .  S
C80          C81   1.406       .  A
C80          H85   1.083       .  S
C81          C82   1.415       .  A
C82          O86   1.372       .  S
C83          C88   1.408       .  A
C83          C92   1.399       .  A
O84         H100   0.992       .  S
O86          H97   0.992       .  S
C88          C89   1.405       .  A
C88          O93   1.372       .  S
C89          C90   1.406       .  A
C89          H94   1.084       .  S
C90          C91   1.411       .  A
C91          C92   1.397       .  A
C91          O95   1.372       .  S
C92          H96   1.084       .  S
O93          H98   0.992       .  S
O95          H99   0.992       .  S
C101        C102   1.400       .  A
C101        C106   1.401       .  A
C101        H111   1.084       .  S
C102        C107   1.482       .  S
C102        C103   1.409       .  A
C103        C104   1.400       .  A
C103        O108   1.373       .  S
C104        C105   1.405       .  A
C104        H109   1.083       .  S
C105        C106   1.416       .  A
C106        O110   1.370       .  S
C107        C112   1.406       .  A
C107        C116   1.406       .  A
O108        H124   0.992       .  S
O110        H121   0.992       .  S
C112        C113   1.394       .  A
C112        O117   1.372       .  S
C113        C114   1.405       .  A
C113        H118   1.084       .  S
C114        C115   1.411       .  A
C115        C116   1.406       .  A
C115        O119   1.372       .  S
C116        H120   1.083       .  S
O117        H122   0.992       .  S
O119        H123   0.992       .  S
C125        C126   1.404       .  A
C125        C130   1.403       .  A
C125        H135   1.084       .  S
C126        C131   1.479       .  S
C126        C127   1.405       .  A
C127        C128   1.397       .  A
C127        O132   1.372       .  S
C128        C129   1.407       .  A
C128        H133   1.084       .  S
C129        C130   1.411       .  A
C130        O134   1.371       .  S
C131        C136   1.406       .  A
C131        C140   1.398       .  A
O132        H148   0.992       .  S
O134        H145   0.992       .  S
C136        C137   1.401       .  A
C136        O141   1.372       .  S
C137        C138   1.408       .  A
C137        H142   1.083       .  S
C138        C139   1.419       .  A
C139        C140   1.400       .  A
C139        O143   1.370       .  S
C140        H144   1.084       .  S
O141        H146   0.991       .  S
O143        H147   0.992       .  S
C149        C150   1.403       .  A
C149        C154   1.404       .  A
C149        H159   1.083       .  S
C150        C155   1.485       .  S
C150        C151   1.405       .  A
C151        C152   1.401       .  A
C151        O156   1.372       .  S
C152        C153   1.411       .  A
C152        H157   1.083       .  S
C153        C154   1.415       .  A
C154        O158   1.371       .  S
C155        C160   1.407       .  A
C155        C164   1.402       .  A
O156        H172   0.992       .  S
O158        H169   0.992       .  S
C160        C161   1.403       .  A
C160        O165   1.371       .  S
C161        C162   1.407       .  A
C161        H166   1.083       .  S
C162        C163   1.415       .  A
C163        C164   1.403       .  A
C163        O167   1.372       .  S
C164        H168   1.084       .  S
O165        H170   0.992       .  S
O167        H171   0.992       .  S
C173        C174   1.401       .  A
C173        C178   1.402       .  A
C173        H183   1.083       .  S
C174        C179   1.481       .  S
C174        C175   1.408       .  A
C175        C176   1.400       .  A
C175        O180   1.372       .  S
C176        C177   1.406       .  A
C176        H181   1.083       .  S
C177        C178   1.414       .  A
C178        O182   1.372       .  S
C179        C184   1.407       .  A
C179        C188   1.401       .  A
O180        H196   0.992       .  S
O182        H193   0.992       .  S
C184        C185   1.403       .  A
C184        O189   1.371       .  S
C185        C186   1.408       .  A
C185        H190   1.083       .  S
C186        C187   1.414       .  A
C187        C188   1.399       .  A
C187        O191   1.372       .  S
C188        H192   1.084       .  S
O189        H194   0.992       .  S
O191        H195   0.992       .  S
C197        C198   1.398       .  A
C197        C202   1.398       .  A
C197        H207   1.084       .  S
C198        C203   1.475       .  S
C198        C199   1.405       .  A
C199        C200   1.400       .  A
C199        O204   1.372       .  S
C200        C201   1.409       .  A
C200        H205   1.083       .  S
C201        C202   1.417       .  A
C202        O206   1.371       .  S
C203        C208   1.406       .  A
C203        C212   1.399       .  A
O204        H220   0.992       .  S
O206        H217   0.992       .  S
C208        C209   1.401       .  A
C208        O213   1.371       .  S
C209        C210   1.408       .  A
C209        H214   1.084       .  S
C210        C211   1.413       .  A
C211        C212   1.396       .  A
C211        O215   1.372       .  S
C212        H216   1.084       .  S
O213        H218   0.992       .  S
O215        H219   0.992       .  S
C221        C222   1.404       .  A
C221        C226   1.400       .  A
C221        H231   1.083       .  S
C222        C227   1.487       .  S
C222        C223   1.409       .  A
C223        C224   1.401   1_565  A
C223        O228   1.371   1_565  S
C224        C225   1.406   1_545  A
C224        H229   1.084       .  S
C225        C226   1.413       .  A
C226        O230   1.372       .  S
C227        C232   1.407       .  A
C227        C236   1.404       .  A
O228        H244   0.992       .  S
O230        H241   0.992       .  S
C232        C233   1.401       .  A
C232        O237   1.372       .  S
C233        C234   1.410       .  A
C233        H238   1.083       .  S
C234        C235   1.414       .  A
C235        C236   1.401       .  A
C235        O239   1.371       .  S
C236        H240   1.084       .  S
O237        H242   0.992       .  S
O239        H243   0.992       .  S
C245        C246   1.406       .  A
C245        C250   1.407       .  A
C245        H255   1.083       .  S
C246        C251   1.488       .  S
C246        C247   1.406       .  A
C247        C248   1.399       .  A
C247        O252   1.372       .  S
C248        C249   1.409       .  A
C248        H253   1.083       .  S
C249        C250   1.414       .  A
C250        O254   1.371   1_455  S
C251        C256   1.407       .  A
C251        C260   1.402       .  A
O252        H268   0.992       .  S
O254        H265   0.992       .  S
C256        C257   1.404       .  A
C256        O261   1.371       .  S
C257        C258   1.408       .  A
C257        H262   1.083       .  S
C258        C259   1.417       .  A
C259        C260   1.402       .  A
C259        O263   1.372       .  S
C260        H264   1.084       .  S
O261        H266   0.992       .  S
O263        H267   0.992       .  S
C269        C270   1.399       .  A
C269        C274   1.394       .  A
C269        H279   1.084       .  S
C270        C275   1.475       .  S
C270        C271   1.407       .  A
C271        C272   1.403       .  A
C271        O276   1.371       .  S
C272        C273   1.405       .  A
C272        H277   1.084       .  S
C273        C274   1.411       .  A
C274        O278   1.372   1_554  S
C275        C280   1.404       .  A
C275        C284   1.400       .  A
O276        H292   0.992       .  S
O278        H289   0.992   1_556  S
C280        C281   1.402       .  A
C280        O285   1.371       .  S
C281        C282   1.410       .  A
C281        H286   1.083       .  S
C282        C283   1.413       .  A
C283        C284   1.396       .  A
C283        O287   1.371   1_554  S
C284        H288   1.084   1_554  S
O285        H290   0.992       .  S
O287        H291   0.992       .  S
C293        C294   1.404       .  A
C293        C298   1.404       .  A
C293        H303   1.084       .  S
C294        C299   1.487       .  S
C294        C295   1.407       .  A
C295        C296   1.403       .  A
C295        O300   1.372       .  S
C296        C297   1.407       .  A
C296        H301   1.083       .  S
C297        C298   1.414       .  A
C298        O302   1.372       .  S
C299        C304   1.407       .  A
C299        C308   1.404       .  A
O300        H316   0.992       .  S
O302        H313   0.992       .  S
C304        C305   1.401       .  A
C304        O309   1.372       .  S
C305        C306   1.409       .  A
C305        H310   1.083       .  S
C306        C307   1.415       .  A
C307        C308   1.406       .  A
C307        O311   1.372       .  S
C308        H312   1.084       .  S
O309        H314   0.992       .  S
O311        H315   0.992       .  S
C317        C318   1.401       .  A
C317        C322   1.402       .  A
C317        H327   1.084       .  S
C318        C323   1.484       .  S
C318        C319   1.407       .  A
C319        C320   1.401       .  A
C319        O324   1.372       .  S
C320        C321   1.408       .  A
C320        H325   1.083       .  S
C321        C322   1.416       .  A
C322        O326   1.370       .  S
C323        C328   1.410       .  A
C323        C332   1.402       .  A
O324        H340   0.992       .  S
O326        H337   0.992       .  S
C328        C329   1.402       .  A
C328        O333   1.371       .  S
C329        C330   1.404       .  A
C329        H334   1.084       .  S
C330        C331   1.410       .  A
C331        C332   1.398       .  A
C331        O335   1.373       .  S
C332        H336   1.084       .  S
O333        H338   0.992       .  S
O335        H339   0.992       .  S
C341        C342   1.402   1_554  A
C341        C346   1.398       .  A
C341        H351   1.083       .  S
C342        C347   1.487       .  S
C342        C343   1.412       .  A
C343        C344   1.404       .  A
C343        O348   1.371       .  S
C344        C345   1.404       .  A
C344        H349   1.084       .  S
C345        C346   1.410   1_556  A
C346        O350   1.373       .  S
C347        C352   1.409   1_556  A
C347        C356   1.401       .  A
O348        H364   0.992       .  S
O350        H361   0.992       .  S
C352        C353   1.400       .  A
C352        O357   1.372       .  S
C353        C354   1.408   1_554  A
C353        H358   1.083       .  S
C354        C355   1.417       .  A
C355        C356   1.403       .  A
C355        O359   1.369       .  S
C356        H360   1.084       .  S
O357        H362   0.992       .  S
O359        H363   0.992       .  S
