geometry optimzed in LAMMPS
_audit_creation_date              2020-11-30 
_audit_creation_method            'lammps2cif' 
_symmetry_space_group_name_H-M    'P1' 
_symmetry_Int_Tables_number       1 
_symmetry_cell_setting            triclinic 
loop_ 
_symmetry_equiv_pos_as_xyz 
  x,y,z 
_cell_length_a                    28.80814216 
_cell_length_b                    36.12889738174394 
_cell_length_c                    25.153763134365978 
_cell_angle_alpha                 90.40904141614008 
_cell_angle_beta                  92.90680208100373 
_cell_angle_gamma                 89.99365201112805 
loop_ 
_atom_site_label 
_atom_site_type_symbol 
_atom_site_fract_x 
_atom_site_fract_y 
_atom_site_fract_z 
_atom_site_charge 
C1          C  0.76611799  0.23927353  0.98674105     0.03200
C2          C  0.77893087  0.21973704  0.94151652    -0.12900
C3          C  0.80849282  0.18899401  0.94622359     0.00700
C4          C  0.82566576  0.17808262  0.99703361    -0.11400
C5          C  0.81398180  0.19786131  0.04279417     0.03200
C6          C  0.78417298  0.22855046  0.03718891    -0.10900
H7          H  0.76667700  0.22911506  0.90246860     0.08800
H8          H  0.84735709  0.15367050  0.00093373     0.06400
H9          H  0.77447335  0.24383516  0.07215485     0.06200
C10         C  0.17519102  0.82920449  0.04883031     0.03200
C11         C  0.16215006  0.84794820  0.09456547    -0.12900
C12         C  0.13320743  0.87910641  0.09096532     0.00700
C13         C  0.11762807  0.89193659  0.04045298    -0.11400
C14         C  0.13093980  0.87377754  0.99386890     0.03200
C15         C  0.15949505  0.84225523  0.99858603    -0.10900
H16         H  0.17418749  0.83792098  0.13337419     0.08800
H17         H  0.09498251  0.91584687  0.03739581     0.06400
H18         H  0.16967228  0.82791128  0.96305927     0.06200
O19         O  0.39730784  0.60530824  0.97980534    -0.80800
O20         O  0.53233074  0.47519384  0.96344382    -0.65500
O21         O  0.42719458  0.53320411  0.99690554    -1.12100
C22         C  0.53167213  0.58042283  0.13496390     1.06100
O23         O  0.54051365  0.45993893  0.04830277    -0.78700
O24         O  0.49758891  0.49223718  0.12863636    -0.66300
Ni25       Ni  0.39093460  0.55833574  0.94373423     1.34900
C26         C  0.45600402  0.50271743  0.13367870     0.84800
O27         O  0.44496362  0.47798875  0.92070160    -0.79200
O28         O  0.38194174  0.51338986  0.90316568    -0.89500
C29         C  0.54845096  0.45390550  0.99976738     0.84400
O30         O  0.43917745  0.57252965  0.89911143    -0.67700
O31         O  0.55538384  0.55121484  0.12682973    -0.87000
C32         C  0.48116366  0.56296541  0.89474505     0.85200
C33         C  0.40688631  0.48495738  0.89423117     1.06800
H34         H  0.53230116  0.54935341  0.01657687     0.38600
O35         O  0.51092206  0.53265008  0.03252940    -1.09600
O36         O  0.43688442  0.52787887  0.10490188    -0.66300
Ni37       Ni  0.45922277  0.56151503  0.05233212     1.26300
O38         O  0.50091817  0.53873633  0.92467459    -0.66500
O39         O  0.49380654  0.58820256  0.10840860    -0.78800
C40         C  0.38976574  0.61248880  0.02815479     0.84600
O41         O  0.40626253  0.59180506  0.06515573    -0.66000
Ni42       Ni  0.54654464  0.50666750  0.08540610     1.27400
Ni43       Ni  0.47905341  0.50469950  0.97687917     1.26100
H44         H  0.40614576  0.51635984  0.01316272     0.39200
C45         C  0.27318829  0.32274733  0.47916605     0.03200
C46         C  0.28741099  0.34269581  0.43520681    -0.12900
C47         C  0.31556433  0.37431918  0.44213835     0.00700
C48         C  0.32870493  0.38637555  0.49414410    -0.11400
C49         C  0.31484480  0.36668910  0.53886091     0.03200
C50         C  0.28779141  0.33459940  0.53065229    -0.10900
H51         H  0.27669053  0.33350163  0.39539427     0.08800
H52         H  0.34987104  0.41100850  0.49974731     0.06400
H53         H  0.27759785  0.31885020  0.56461044     0.06200
C54         C  0.67937524  0.73292486  0.54860065     0.03200
C55         C  0.66498814  0.71386077  0.59325887    -0.12900
C56         C  0.63336957  0.68431262  0.58750462     0.00700
C57         C  0.61694105  0.67346535  0.53606722    -0.11400
C58         C  0.63110135  0.69226106  0.49082447     0.03200
C59         C  0.66230005  0.72194507  0.49757775    -0.10900
H60         H  0.67909058  0.72162522  0.63250785     0.08800
H61         H  0.59245255  0.65077968  0.53123723     0.06400
H62         H  0.67395631  0.73622938  0.46295536     0.06200
O63         O  0.03632038  0.10871805  0.54967174    -0.80800
O64         O  0.90247908  0.97687468  0.56811395    -0.65500
O65         O  0.00867920  0.03530973  0.53855298    -1.12100
C66         C  0.91123884  0.07556576  0.39037695     1.06100
O67         O  0.89898801  0.96003987  0.48378297    -0.78700
O68         O  0.94347464  0.98929248  0.40437437    -0.66300
Ni69       Ni  0.04045061  0.06444109  0.59148160     1.34900
C70         C  0.98605140  0.99760511  0.40275042     0.84800
O71         O  0.98807932  0.98299797  0.61658759    -0.79200
O72         O  0.04680733  0.02239984  0.63741849    -0.89500
C73         C  0.88666135  0.95561782  0.53100101     0.84400
O74         O  0.98834450  0.08132272  0.62790706    -0.67700
O75         O  0.88549613  0.04798511  0.40060127    -0.87000
C76         C  0.94666745  0.07057355  0.63021030     0.85200
C77         C  0.02396107  0.99280338  0.64547699     1.06800
H78         H  0.90510206  0.05023835  0.51066000     0.38600
O79         O  0.92691969  0.03260220  0.49728325    -1.09600
O80         O  0.00490858  0.02302853  0.43181510    -0.66300
Ni81       Ni  0.97989698  0.06010685  0.47842955     1.26300
O82         O  0.93035830  0.04274284  0.60421005    -0.66500
O83         O  0.94872714  0.08348174  0.41761559    -0.78800
C84         C  0.04860826  0.11203678  0.50216858     0.84600
O85         O  0.03394419  0.08925921  0.46641959    -0.66000
Ni86       Ni  0.89309577  0.00504361  0.44436926     1.27400
Ni87       Ni  0.95612405  0.00688793  0.55663918     1.26100
H88         H  0.03140529  0.01808300  0.52596850     0.39200
C89         C  0.73584121  0.82458808  0.59001023    -0.27500
C90         C  0.77310692  0.82564543  0.55625254     0.02100
C91         C  0.78178455  0.79474725  0.52376965     0.30200
C92         C  0.75182553  0.76425865  0.52315091    -0.19300
C93         C  0.71296627  0.76396867  0.55456480    -0.28700
C94         C  0.70573217  0.79408123  0.58925549     0.44200
C95         C  0.80042501  0.86009913  0.55164795     0.05400
O96         O  0.81993480  0.79405598  0.49315728    -0.57200
H97         H  0.75862111  0.74091999  0.49738346     0.18300
O98         O  0.66841603  0.79466348  0.62102219    -0.63900
H99         H  0.72892038  0.84815038  0.61529767     0.16800
C100        C  0.80135527  0.87803832  0.50233504     0.29000
C101        C  0.82852936  0.90963398  0.49730141    -0.24800
C102        C  0.85527417  0.92416822  0.54087338    -0.24100
C103        C  0.85254126  0.90731629  0.59101915     0.40500
C104        C  0.82531158  0.87535150  0.59607948    -0.26600
O105        O  0.77441790  0.86551971  0.45928145    -0.58500
H106        H  0.82878543  0.92269873  0.45866471     0.16100
O107        O  0.87778696  0.92071591  0.63462767    -0.59900
H108        H  0.82435261  0.86200867  0.63444212     0.14600
H109        H  0.64191128  0.80351788  0.59781872     0.46400
H110        H  0.79649934  0.85790038  0.43224413     0.41800
H111        H  0.85704303  0.93880488  0.65138445     0.45300
H112        H  0.80755729  0.79217822  0.45570801     0.36800
C113        C  0.17056114  0.26062961  0.43758602    -0.27500
C114        C  0.17923574  0.23003510  0.47048659     0.02100
C115        C  0.22060232  0.22853824  0.50249992     0.30200
C116        C  0.25199356  0.25806795  0.50281938    -0.19300
C117        C  0.24238989  0.28980431  0.47217210    -0.28700
C118        C  0.20163918  0.29051099  0.43837966     0.44200
C119        C  0.14311781  0.20147334  0.47550162     0.05400
O120        O  0.23033328  0.19838032  0.53398268    -0.57200
H121        H  0.28345256  0.25653179  0.52820205     0.18300
O122        O  0.19065929  0.32087569  0.40784506    -0.63900
H123        H  0.13860982  0.26205420  0.41303142     0.16800
C124        C  0.11712637  0.20075852  0.52118020     0.29000
C125        C  0.08561095  0.17212075  0.52821158    -0.24800
C126        C  0.07903983  0.14371564  0.48992360    -0.24100
C127        C  0.10388076  0.14531956  0.44300923     0.40500
C128        C  0.13559509  0.17421202  0.43602754    -0.26600
O129        O  0.12321409  0.22752760  0.55987952    -0.58500
H130        H  0.06675518  0.17197009  0.56440232     0.16100
O131        O  0.09846269  0.11843159  0.40445449    -0.59900
H132        H  0.15533488  0.17475672  0.40051254     0.14600
H133        H  0.17447073  0.33803877  0.43164462     0.46400
H134        H  0.09927727  0.24652153  0.55092249     0.41800
H135        H  0.12178489  0.09919497  0.41452254     0.45300
H136        H  0.22161158  0.20583637  0.57016358     0.36800
C137        C  0.35986578  0.47283111  0.22422559    -0.27500
C138        C  0.38569689  0.45204028  0.26231883     0.02100
C139        C  0.43386490  0.44837676  0.25795685     0.30200
C140        C  0.45558319  0.46463815  0.21572678    -0.19300
C141        C  0.43019808  0.48520784  0.17681042    -0.28700
C142        C  0.38171467  0.48923710  0.18145662     0.44200
C143        C  0.36299959  0.43275895  0.30585315     0.05400
O144        O  0.46016505  0.42876453  0.29501283    -0.57200
H145        H  0.49285115  0.46132940  0.21402070     0.18300
O146        O  0.35530289  0.50884076  0.14453956    -0.63900
H147        H  0.32265107  0.47574865  0.22713595     0.16800
C148        C  0.34389512  0.45239536  0.34804182     0.29000
C149        C  0.32811084  0.43320658  0.39202799    -0.24800
C150        C  0.33149650  0.39438230  0.39482518    -0.24100
C151        C  0.35062444  0.37493563  0.35224841     0.40500
C152        C  0.36561799  0.39406612  0.30817735    -0.26600
O153        O  0.34174102  0.49031095  0.34735363    -0.58500
H154        H  0.31350374  0.44870957  0.42419614     0.16100
O155        O  0.35653167  0.33728939  0.35412864    -0.59900
H156        H  0.38096123  0.37868928  0.27634095     0.14600
H157        H  0.34691765  0.49081679  0.11571169     0.46400
H158        H  0.37229509  0.49878692  0.36283484     0.41800
H159        H  0.38737716  0.33352529  0.37263077     0.45300
H160        H  0.46896050  0.44690371  0.32354460     0.36800
C161        C  0.40666897  0.41324022  0.78127566    -0.27500
C162        C  0.36609414  0.42310865  0.75127141     0.02100
C163        C  0.33728405  0.45087624  0.77136454     0.30200
C164        C  0.34971251  0.46886394  0.81939862    -0.19300
C165        C  0.39145135  0.46047298  0.84842948    -0.28700
C166        C  0.41959948  0.43170804  0.82919274     0.44200
C167        C  0.35462968  0.40576204  0.69814029     0.05400
O168        O  0.29765637  0.46185719  0.74325788    -0.57200
H169        H  0.32716183  0.49067742  0.83269364     0.18300
O170        O  0.46022456  0.42176469  0.85614129    -0.63900
H171        H  0.42893400  0.39154751  0.76701534     0.16800
C172        C  0.38704391  0.40519420  0.65790803     0.29000
C173        C  0.37396266  0.39195957  0.60670971    -0.24800
C174        C  0.32842053  0.37952396  0.59413388    -0.24100
C175        C  0.29618352  0.37979523  0.63470377     0.40500
C176        C  0.30961614  0.39219902  0.68607288    -0.26600
O177        O  0.43128578  0.41844493  0.66769237    -0.58500
H178        H  0.39953207  0.39170259  0.57658524     0.16100
O179        O  0.25089345  0.36918473  0.62435250    -0.59900
H180        H  0.28421938  0.39211481  0.71639884     0.14600
H181        H  0.48491888  0.43602554  0.83933567     0.46400
H182        H  0.42907700  0.44546102  0.66133300     0.41800
H183        H  0.23472458  0.39168570  0.61070050     0.45300
H184        H  0.30802965  0.48071616  0.71797033     0.36800
C185        C  0.58313723  0.69157635  0.34637576    -0.27500
C186        C  0.58828635  0.65410545  0.33257135     0.02100
C187        C  0.60657356  0.62939944  0.37144771     0.30200
C188        C  0.61975526  0.64218991  0.42263335    -0.19300
C189        C  0.61522643  0.67966498  0.43641317    -0.28700
C190        C  0.59672259  0.70448767  0.39771641     0.44200
C191        C  0.57493653  0.64052034  0.27782997     0.05400
O192        O  0.61166463  0.59251534  0.35983849    -0.57200
H193        H  0.63420358  0.62273755  0.45159128     0.18300
O194        O  0.59021290  0.74107824  0.41031277    -0.63900
H195        H  0.56909573  0.71096868  0.31711260     0.16800
C196        C  0.52934873  0.64447397  0.25548536     0.29000
C197        C  0.51628736  0.62682194  0.20696705    -0.24800
C198        C  0.54819984  0.60498800  0.17999712    -0.24100
C199        C  0.59466020  0.60323490  0.20096857     0.40500
C200        C  0.60753194  0.62087103  0.24918184    -0.26600
O201        O  0.49635762  0.66291603  0.28285367    -0.58500
H202        H  0.48038603  0.62848586  0.19213274     0.16100
O203        O  0.62753976  0.58299168  0.17596806    -0.59900
H204        H  0.64298019  0.61814121  0.26524582     0.14600
H205        H  0.61427851  0.75476788  0.39157955     0.46400
H206        H  0.49317224  0.68741821  0.26553278     0.41800
H207        H  0.64037534  0.60009059  0.14977202     0.45300
H208        H  0.58064521  0.58140785  0.36434376     0.36800
C209        C  0.58344416  0.66732340  0.72218343    -0.27500
C210        C  0.58128747  0.62852222  0.72360649     0.02100
C211        C  0.59834572  0.60793963  0.68096725     0.30200
C212        C  0.61581952  0.62632952  0.63717532    -0.19300
C213        C  0.61689809  0.66522367  0.63528106    -0.28700
C214        C  0.60071209  0.68564849  0.67860587     0.44200
C215        C  0.55666488  0.61069606  0.76724773     0.05400
O216        O  0.59523690  0.57004594  0.68010232    -0.57200
H217        H  0.62808690  0.61012670  0.60430456     0.18300
O218        O  0.59986037  0.72360837  0.67796926    -0.63900
H219        H  0.57030924  0.68359129  0.75452121     0.16800
C220        C  0.57749660  0.58342450  0.80038374     0.29000
C221        C  0.55294676  0.56837160  0.84201915    -0.24800
C222        C  0.50749639  0.58025090  0.85167640    -0.24100
C223        C  0.48689347  0.60757608  0.81795949     0.40500
C224        C  0.51147482  0.62245783  0.77671128    -0.26600
O225        O  0.62194913  0.57160885  0.79296879    -0.58500
H226        H  0.56962100  0.54729366  0.86672819     0.16100
O227        O  0.44279349  0.62042641  0.82496534    -0.59900
H228        H  0.49485099  0.64334471  0.75156032     0.14600
H229        H  0.57084556  0.73018002  0.65727327     0.46400
H230        H  0.64235244  0.58987118  0.81227474     0.41800
H231        H  0.42238298  0.60583916  0.79971989     0.45300
H232        H  0.62767644  0.56104038  0.68517246     0.36800
C233        C  0.01674124  0.93542608  0.28727856    -0.27500
C234        C  0.06347209  0.94406880  0.28145996     0.02100
C235        C  0.08609700  0.96867154  0.31791577     0.30200
C236        C  0.06118045  0.98529289  0.35837072    -0.19300
C237        C  0.01370938  0.97731620  0.36339943    -0.28700
C238        C  0.99208115  0.95118784  0.32784614     0.44200
C239        C  0.08685199  0.92753044  0.23591532     0.05400
O240        O  0.13228810  0.97684751  0.31410893    -0.57200
H241        H  0.07887932  0.00482231  0.38525500     0.18300
O242        O  0.94617491  0.94168356  0.33070828    -0.63900
H243        H  0.99879668  0.91667544  0.25937632     0.16800
C244        C  0.08587576  0.88895399  0.22771908     0.29000
C245        C  0.10089804  0.87383637  0.18041105    -0.24800
C246        C  0.11778015  0.89656005  0.14064313    -0.24100
C247        C  0.12052770  0.93509908  0.14965007     0.40500
C248        C  0.10492992  0.95034818  0.19700058    -0.26600
O249        O  0.06893875  0.86583420  0.26518855    -0.58500
H250        H  0.09855532  0.84415363  0.17438733     0.16100
O251        O  0.13811235  0.95807622  0.11245627    -0.59900
H252        H  0.10555270  0.98010959  0.20259856     0.14600
H253        H  0.94629986  0.91874600  0.35215236     0.46400
H254        H  0.09566650  0.86103545  0.29060666     0.41800
H255        H  0.17221471  0.95803465  0.12016020     0.45300
H256        H  0.14924240  0.95595326  0.33155038     0.36800
C257        C  0.03035134  0.92091990  0.75716345    -0.27500
C258        C  0.06980182  0.93314682  0.78763966     0.02100
C259        C  0.09492884  0.96353556  0.76928645     0.30200
C260        C  0.08051996  0.98121400  0.72211301    -0.19300
C261        C  0.04021450  0.96999857  0.69221033    -0.28700
C262        C  0.01538423  0.93908734  0.71002531     0.44200
C263        C  0.08418431  0.91517499  0.83918578     0.05400
O264        O  0.13298270  0.97712569  0.79809313    -0.57200
H265        H  0.10063767  0.00472490  0.70993523     0.18300
O266        O  0.97557230  0.92716043  0.68302909    -0.63900
H267        H  0.01080187  0.89731859  0.77008974     0.16800
C268        C  0.05246203  0.90995261  0.87941578     0.29000
C269        C  0.06798302  0.89636098  0.92939590    -0.24800
C270        C  0.11502640  0.88757256  0.94028732    -0.22100
C271        C  0.14658054  0.89236917  0.89978999     0.40500
C272        C  0.13099508  0.90548344  0.84976847    -0.26600
O273        O  0.00673417  0.91996991  0.87131683    -0.58500
H274        H  0.04311586  0.89281686  0.95985626     0.16100
O275        O  0.19309188  0.88545057  0.90910676    -0.59900
H276        H  0.15594894  0.90889257  0.81937146     0.14600
H277        H  0.98532355  0.90601231  0.66086220     0.46400
H278        H  0.98941125  0.89635973  0.86650189     0.41800
H279        H  0.20600637  0.90838782  0.92595198     0.45300
H280        H  0.12041690  0.99546742  0.82312015     0.36800
C281        C  0.32534644  0.70331462  0.00996310    -0.27500
C282        C  0.30209177  0.70602031  0.05720761     0.02100
C283        C  0.31082743  0.67978187  0.09753446     0.30200
C284        C  0.34084909  0.64991445  0.08880250    -0.19300
C285        C  0.36259719  0.64618721  0.04016032    -0.28700
C286        C  0.35564681  0.67409285  0.00136869     0.44200
C287        C  0.26715811  0.73555819  0.06150048     0.05400
O288        O  0.28837204  0.68202869  0.14422222    -0.57200
H289        H  0.34578904  0.62904209  0.11927386     0.18300
O290        O  0.37742313  0.67278606  0.95414103    -0.63900
H291        H  0.31931774  0.72377695  0.97905893     0.16800
C292        C  0.27708030  0.76788237  0.09126293     0.29000
C293        C  0.24641398  0.79793533  0.08762771    -0.24800
C294        C  0.20586021  0.79630863  0.05404013    -0.24100
C295        C  0.19524713  0.76327941  0.02584826     0.40500
C296        C  0.22599811  0.73336693  0.02940997    -0.26600
O297        O  0.31740319  0.77082071  0.12240700    -0.58500
H298        H  0.25515880  0.82304658  0.10971445     0.16100
O299        O  0.15515390  0.76002887  0.99436348    -0.59900
H300        H  0.21826531  0.70859193  0.00607383     0.14600
H301        H  0.40770734  0.68533322  0.96152698     0.46400
H302        H  0.34045469  0.78157804  0.09893805     0.41800
H303        H  0.13145174  0.75092898  0.01836053     0.45300
H304        H  0.30997428  0.69572661  0.16921399     0.36800
C305        C  0.89038450  0.16048760  0.15848859    -0.27500
C306        C  0.85751437  0.15518811  0.19704654     0.02100
C307        C  0.81129166  0.16655026  0.18605314     0.30200
C308        C  0.79806898  0.18138054  0.13629425    -0.19300
C309        C  0.83029745  0.18500041  0.09659205    -0.28700
C310        C  0.87708339  0.17512018  0.10843820     0.44200
C311        C  0.87097584  0.13577330  0.24729945     0.05400
O312        O  0.77905704  0.16381281  0.22421108    -0.57200
H313        H  0.76206100  0.18908104  0.12825649     0.18300
O314        O  0.91018452  0.18065089  0.07192805    -0.63900
H315        H  0.92621005  0.15230745  0.16667892     0.16800
C316        C  0.84854019  0.10274728  0.26034269     0.29000
C317        C  0.86110996  0.08452808  0.30763374    -0.24800
C318        C  0.89705286  0.09799246  0.34266096    -0.24100
C319        C  0.92023070  0.13083072  0.32897196     0.40500
C320        C  0.90696282  0.14947298  0.28171941    -0.26600
O321        O  0.81487218  0.08746921  0.22642521    -0.58500
H322        H  0.84319406  0.05902606  0.31597883     0.16100
O323        O  0.95544257  0.14524460  0.36153040    -0.59900
H324        H  0.92480475  0.17473129  0.27192072     0.14600
H325        H  0.91920013  0.15556792  0.05992027     0.46400
H326        H  0.83197138  0.07242107  0.20071683     0.41800
H327        H  0.98454029  0.13610598  0.34654732     0.45300
H328        H  0.75627321  0.14499688  0.21061057     0.36800
C329        C  0.80729872  0.14424892  0.80867368    -0.27500
C330        C  0.85483443  0.13775054  0.80345595     0.02100
C331        C  0.88649364  0.14617294  0.84636751     0.30200
C332        C  0.87073651  0.16199380  0.89290297    -0.19300
C333        C  0.82337329  0.16955518  0.89782095    -0.28700
C334        C  0.79140872  0.15990792  0.85550373     0.44200
C335        C  0.87191775  0.12279083  0.75316693     0.05400
O336        O  0.93312895  0.13949026  0.84290649    -0.57200
H337        H  0.89586616  0.16924565  0.92478949     0.18300
O338        O  0.74466191  0.16584897  0.85930421    -0.63900
H339        H  0.78258172  0.13773993  0.77605009     0.16800
C340        C  0.85797449  0.08776043  0.73345516     0.29000
C341        C  0.88055957  0.07180946  0.69084059    -0.24800
C342        C  0.91698296  0.09054419  0.66733834    -0.24100
C343        C  0.92805578  0.12695965  0.68446942     0.40500
C344        C  0.90549010  0.14273730  0.72693604    -0.26600
O345        O  0.82502889  0.06772755  0.75825823    -0.58500
H346        H  0.87135330  0.04389433  0.67831076     0.16100
O347        O  0.96120898  0.14726446  0.66032120    -0.59900
H348        H  0.91552234  0.17020457  0.74080748     0.14600
H349        H  0.73334133  0.14441197  0.87936922     0.46400
H350        H  0.79613308  0.07047646  0.73547989     0.41800
H351        H  0.98904610  0.14672802  0.68519730     0.45300
H352        H  0.93723704  0.11292180  0.85159516     0.36800
C353        C  0.59941959  0.35776002  0.00664701    -0.27500
C354        C  0.63743235  0.36141923  0.97455245     0.02100
C355        C  0.64344289  0.39444326  0.94637729     0.30200
C356        C  0.61216627  0.42382783  0.95186212    -0.19300
C357        C  0.57577731  0.42093402  0.98664504    -0.28700
C358        C  0.56904487  0.38736795  0.01339060     0.44200
C359        C  0.67183902  0.33121108  0.97378137     0.05400
O360        O  0.67983922  0.39818794  0.91371732    -0.57200
H361        H  0.61779812  0.44951474  0.93116346     0.18300
O362        O  0.53273394  0.38327172  0.04612947    -0.63900
H363        H  0.59436311  0.33232812  0.02820975     0.16800
C364        C  0.71590759  0.33542507  0.99988259     0.29000
C365        C  0.74650985  0.30538049  0.00349712    -0.24800
C366        C  0.73374488  0.27093596  0.98116187    -0.24100
C367        C  0.68984304  0.26690906  0.95432731     0.40500
C368        C  0.65904017  0.29687703  0.95131777    -0.26600
O369        O  0.72886124  0.36855095  0.02311920    -0.58500
H370        H  0.78020787  0.30889801  0.02405796     0.16100
O371        O  0.67582106  0.23326458  0.93357794    -0.59900
H372        H  0.62482900  0.29320978  0.93205380     0.14600
H373        H  0.54652185  0.38644803  0.08281827     0.46400
H374        H  0.71884328  0.36708045  0.06018840     0.41800
H375        H  0.67829338  0.23548309  0.89454428     0.45300
H376        H  0.70330962  0.41326375  0.93434588     0.36800
loop_ 
_geom_bond_atom_site_label_1 
_geom_bond_atom_site_label_2 
_geom_bond_distance 
_geom_bond_site_symmetry_2 
_ccdc_geom_bond_type 
C1            C2   1.400       .  A
C1            C6   1.404   1_556  A
C1          C366   1.479       .  S
C2            C3   1.402       .  A
C2            H7   1.083       .  S
C3            C4   1.406       .  A
C3          C333   1.483       .  S
C4            C5   1.406   1_556  A
C4            H8   1.083   1_556  S
C5            C6   1.406       .  A
C5          C309   1.487       .  S
C6            H9   1.084       .  S
C10          C11   1.399       .  A
C10          C15   1.405   1_554  A
C10         C294   1.483       .  S
C11          C12   1.402       .  A
C11          H16   1.084       .  S
C12          C13   1.408       .  A
C12         C246   1.484       .  S
C13          C14   1.409   1_554  A
C13          H17   1.083       .  S
C14          C15   1.407       .  A
C14         C270   1.491       .  S
C15          H18   1.083       .  S
O19         Ni25   1.923       .  S
O19          C40   1.271   1_556  A
O20         Ni43   1.911       .  S
O20          C29   1.268       .  A
O21         Ni25   1.892       .  S
O21         Ni43   1.901       .  S
O21         Ni37   1.921   1_556  S
O21          H44   0.966   1_556  S
C22         C198   1.493       .  S
C22          O39   1.282       .  A
C22          O31   1.278       .  A
O23         Ni42   1.927       .  S
O23          C29   1.271   1_554  A
O24         Ni42   1.899       .  S
O24          C26   1.269       .  A
Ni25         O28   1.922       .  S
Ni25         O30   1.903       .  S
C26         C141   1.491       .  S
C26          O36   1.274       .  A
O27         Ni43   1.932       .  S
O27          C33   1.280       .  A
O28          C33   1.279       .  A
C29         C357   1.472       .  S
O30          C32   1.268       .  A
O31         Ni42   1.921       .  S
C32         C222   1.494       .  S
C32          O38   1.274       .  A
C33         C165   1.497       .  S
H34          O35   0.966       .  S
O35         Ni43   1.916   1_554  S
O35         Ni37   1.903       .  S
O35         Ni42   1.893       .  S
O36         Ni37   1.936       .  S
Ni37         O41   1.917       .  S
Ni37         O39   1.937       .  S
O38         Ni43   1.934       .  S
C40         C285   1.485       .  S
C40          O41   1.271       .  A
C45          C46   1.403       .  A
C45          C50   1.405       .  A
C45         C117   1.489       .  S
C46          C47   1.406       .  A
C46          H51   1.083       .  S
C47          C48   1.409       .  A
C47         C150   1.490       .  S
C48          C49   1.410       .  A
C48          H52   1.083       .  S
C49          C50   1.405       .  A
C49         C174   1.496       .  S
C50          H53   1.083       .  S
C54          C55   1.402       .  A
C54          C59   1.405       .  A
C54          C93   1.483       .  S
C55          C56   1.405       .  A
C55          H60   1.083       .  S
C56          C57   1.408       .  A
C56         C213   1.488       .  S
C57          C58   1.407       .  A
C57          H61   1.084       .  S
C58          C59   1.403       .  A
C58         C189   1.489       .  S
C59          H62   1.083       .  S
O63         Ni69   1.921       .  S
O63          C84   1.270       .  A
O64         Ni87   1.923   1_565  S
O64          C73   1.271       .  A
O65         Ni69   1.891       .  S
O65         Ni87   1.905   1_455  S
O65         Ni81   1.916   1_455  S
O65          H88   0.967       .  S
C66         C318   1.493       .  S
C66          O83   1.281       .  A
C66          O75   1.278       .  A
O67         Ni86   1.913   1_565  S
O67          C73   1.268       .  A
O68         Ni86   1.893   1_565  S
O68          C70   1.266       .  A
Ni69         O72   1.918       .  S
Ni69         O74   1.896   1_455  S
C70         C237   1.490   1_655  S
C70          O80   1.274   1_665  A
O71         Ni87   1.935   1_565  S
O71          C77   1.282   1_655  A
O72          C77   1.278   1_545  A
C73         C102   1.482       .  S
O74          C76   1.266       .  A
O75         Ni86   1.915       .  S
C76         C342   1.482       .  S
C76          O82   1.272       .  A
C77         C261   1.496       .  S
H78          O79   0.966       .  S
O79         Ni87   1.922       .  S
O79         Ni81   1.903       .  S
O79         Ni86   1.887       .  S
O80         Ni81   1.937   1_455  S
Ni81         O85   1.918   1_655  S
Ni81         O83   1.934       .  S
O82         Ni87   1.931       .  S
C84         C126   1.485       .  S
C84          O85   1.271       .  A
C89          C90   1.403       .  A
C89          C94   1.402       .  A
C89          H99   1.084       .  S
C90          C91   1.409       .  A
C90          C95   1.481       .  S
C91          C92   1.399       .  A
C91          O96   1.374       .  S
C92          C93   1.403       .  A
C92          H97   1.084       .  S
C93          C94   1.412       .  A
C94          O98   1.372       .  S
C95         C100   1.405       .  A
C95         C104   1.406       .  A
O96         H112   0.992       .  S
O98         H109   0.992       .  S
C100        C101   1.394       .  A
C100        O105   1.374       .  S
C101        C102   1.406       .  A
C101        H106   1.084       .  S
C102        C103   1.410       .  A
C103        C104   1.406       .  A
C103        O107   1.370       .  S
C104        H108   1.083       .  S
O105        H110   0.992       .  S
O107        H111   0.992       .  S
C113        C114   1.400       .  A
C113        C118   1.402       .  A
C113        H123   1.084       .  S
C114        C115   1.405       .  A
C114        C119   1.476       .  S
C115        C116   1.398       .  A
C115        O120   1.372       .  S
C116        C117   1.406       .  A
C116        H121   1.083       .  S
C117        C118   1.414       .  A
C118        O122   1.371       .  S
C119        C124   1.403       .  A
C119        C128   1.403       .  A
O120        H136   0.992       .  S
O122        H133   0.992       .  S
C124        C125   1.395       .  A
C124        O129   1.372       .  S
C125        C126   1.409       .  A
C125        H130   1.084       .  S
C126        C127   1.412       .  A
C127        C128   1.405       .  A
C127        O131   1.371       .  S
C128        H132   1.083       .  S
O129        H134   0.992       .  S
O131        H135   0.992       .  S
C137        C138   1.405       .  A
C137        C142   1.408       .  A
C137        H147   1.083       .  S
C138        C139   1.404       .  A
C138        C143   1.482       .  S
C139        C140   1.393       .  A
C139        O144   1.372       .  S
C140        C141   1.408       .  A
C140        H145   1.083       .  S
C141        C142   1.415       .  A
C142        O146   1.371       .  S
C143        C148   1.407       .  A
C143        C152   1.401       .  A
O144        H160   0.992       .  S
O146        H157   0.992       .  S
C148        C149   1.405       .  A
C148        O153   1.371       .  S
C149        C150   1.408       .  A
C149        H154   1.083       .  S
C150        C151   1.412       .  A
C151        C152   1.397       .  A
C151        O155   1.372       .  S
C152        H156   1.084       .  S
O153        H158   0.992       .  S
O155        H159   0.992       .  S
C161        C162   1.406       .  A
C161        C166   1.407       .  A
C161        H171   1.083       .  S
C162        C163   1.409       .  A
C162        C167   1.494       .  S
C163        C164   1.398       .  A
C163        O168   1.372       .  S
C164        C165   1.409       .  A
C164        H169   1.083       .  S
C165        C166   1.416       .  A
C166        O170   1.372       .  S
C167        C172   1.411       .  A
C167        C176   1.404       .  A
O168        H184   0.992       .  S
O170        H181   0.992       .  S
C172        C173   1.404       .  A
C172        O177   1.371       .  S
C173        C174   1.407       .  A
C173        H178   1.083       .  S
C174        C175   1.414       .  A
C175        C176   1.400       .  A
C175        O179   1.372       .  S
C176        H180   1.083       .  S
O177        H182   0.992       .  S
O179        H183   0.992       .  S
C185        C186   1.405       .  A
C185        C190   1.407       .  A
C185        H195   1.083       .  S
C186        C187   1.411       .  A
C186        C191   1.490       .  S
C187        C188   1.399       .  A
C187        O192   1.372       .  S
C188        C189   1.403       .  A
C188        H193   1.084       .  S
C189        C190   1.413       .  A
C190        O194   1.372       .  S
C191        C196   1.410       .  A
C191        C200   1.402       .  A
O192        H208   0.992       .  S
O194        H205   0.992       .  S
C196        C197   1.407       .  A
C196        O201   1.371       .  S
C197        C198   1.408       .  A
C197        H202   1.083       .  S
C198        C199   1.415       .  A
C199        C200   1.399       .  A
C199        O203   1.372       .  S
C200        H204   1.084       .  S
O201        H206   0.992       .  S
O203        H207   0.992       .  S
C209        C210   1.404       .  A
C209        C214   1.398       .  A
C209        H219   1.084       .  S
C210        C211   1.410       .  A
C210        C215   1.487       .  S
C211        C212   1.405       .  A
C211        O216   1.372       .  S
C212        C213   1.407       .  A
C212        H217   1.083       .  S
C213        C214   1.411       .  A
C214        O218   1.372       .  S
C215        C220   1.409       .  A
C215        C224   1.401       .  A
O216        H232   0.992       .  S
O218        H229   0.992       .  S
C220        C221   1.406       .  A
C220        O225   1.371       .  S
C221        C222   1.410       .  A
C221        H226   1.083       .  S
C222        C223   1.417       .  A
C223        C224   1.396       .  A
C223        O227   1.372       .  S
C224        H228   1.084       .  S
O225        H230   0.992       .  S
O227        H231   0.992       .  S
C233        C234   1.397       .  A
C233        C238   1.391   1_455  A
C233        H243   1.084   1_455  S
C234        C235   1.408       .  A
C234        C239   1.480       .  S
C235        C236   1.406       .  A
C235        O240   1.371       .  S
C236        C237   1.410       .  A
C236        H241   1.083   1_565  S
C237        C238   1.418   1_455  A
C238        O242   1.372       .  S
C239        C244   1.408       .  A
C239        C248   1.404       .  A
O240        H256   0.992       .  S
O242        H253   0.992       .  S
C244        C245   1.394       .  A
C244        O249   1.372       .  S
C245        C246   1.404       .  A
C245        H250   1.084       .  S
C246        C247   1.411       .  A
C247        C248   1.403       .  A
C247        O251   1.371       .  S
C248        H252   1.083       .  S
O249        H254   0.992       .  S
O251        H255   0.992       .  S
C257        C258   1.408       .  A
C257        C262   1.408       .  A
C257        H267   1.083       .  S
C258        C259   1.408       .  A
C258        C263   1.494       .  S
C259        C260   1.396       .  A
C259        O264   1.372       .  S
C260        C261   1.409       .  A
C260        H265   1.083   1_565  S
C261        C262   1.414       .  A
C262        O266   1.371   1_455  S
C263        C268   1.411       .  A
C263        C272   1.406       .  A
O264        H280   0.992       .  S
O266        H277   0.992       .  S
C268        C269   1.405       .  A
C268        O273   1.372       .  S
C269        C270   1.406       .  A
C269        H274   1.083       .  S
C270        C271   1.411       .  A
C271        C272   1.400       .  A
C271        O275   1.372       .  S
C272        H276   1.083       .  S
O273        H278   0.992   1_455  S
O275        H279   0.992       .  S
C281        C282   1.396       .  A
C281        C286   1.392       .  A
C281        H291   1.084   1_554  S
C282        C283   1.407       .  A
C282        C287   1.474       .  S
C283        C284   1.406       .  A
C283        O288   1.371       .  S
C284        C285   1.408       .  A
C284        H289   1.083       .  S
C285        C286   1.415       .  A
C286        O290   1.372   1_554  S
C287        C292   1.404       .  A
C287        C296   1.402       .  A
O288        H304   0.992       .  S
O290        H301   0.992       .  S
C292        C293   1.400       .  A
C292        O297   1.371       .  S
C293        C294   1.408       .  A
C293        H298   1.083       .  S
C294        C295   1.409       .  A
C295        C296   1.398       .  A
C295        O299   1.371   1_554  S
C296        H300   1.084       .  S
O297        H302   0.992       .  S
O299        H303   0.992   1_556  S
C305        C306   1.404       .  A
C305        C310   1.404       .  A
C305        H315   1.084       .  S
C306        C307   1.408       .  A
C306        C311   1.484       .  S
C307        C308   1.400       .  A
C307        O312   1.373       .  S
C308        C309   1.404       .  A
C308        H313   1.083       .  S
C309        C310   1.412       .  A
C310        O314   1.373       .  S
C311        C316   1.406       .  A
C311        C320   1.404       .  A
O312        H328   0.992       .  S
O314        H325   0.992       .  S
C316        C317   1.395       .  A
C316        O321   1.372       .  S
C317        C318   1.409       .  A
C317        H322   1.083       .  S
C318        C319   1.415       .  A
C319        C320   1.406       .  A
C319        O323   1.371       .  S
C320        H324   1.083       .  S
O321        H326   0.992       .  S
O323        H327   0.992       .  S
C329        C330   1.402       .  A
C329        C334   1.401       .  A
C329        H339   1.083       .  S
C330        C331   1.409       .  A
C330        C335   1.479       .  S
C331        C332   1.395       .  A
C331        O336   1.372       .  S
C332        C333   1.403       .  A
C332        H337   1.084       .  S
C333        C334   1.413       .  A
C334        O338   1.372       .  S
C335        C340   1.407       .  A
C335        C344   1.401       .  A
O336        H352   0.992       .  S
O338        H349   0.992       .  S
C340        C341   1.402       .  A
C340        O345   1.371       .  S
C341        C342   1.406       .  A
C341        H346   1.083       .  S
C342        C343   1.413       .  A
C343        C344   1.397       .  A
C343        O347   1.373       .  S
C344        H348   1.084       .  S
O345        H350   0.992       .  S
O347        H351   0.992       .  S
C353        C354   1.400   1_554  A
C353        C358   1.397       .  A
C353        H363   1.084       .  S
C354        C355   1.407       .  A
C354        C359   1.475       .  S
C355        C356   1.403       .  A
C355        O360   1.372       .  S
C356        C357   1.403       .  A
C356        H361   1.084       .  S
C357        C358   1.409   1_556  A
C358        O362   1.372       .  S
C359        C364   1.407       .  A
C359        C368   1.401       .  A
O360        H376   0.992       .  S
O362        H373   0.992       .  S
C364        C365   1.399   1_556  A
C364        O369   1.372   1_556  S
C365        C366   1.403   1_554  A
C365        H370   1.084       .  S
C366        C367   1.410       .  A
C367        C368   1.400       .  A
C367        O371   1.372       .  S
C368        H372   1.084       .  S
O369        H374   0.992       .  S
O371        H375   0.992       .  S
