geometry optimzed in LAMMPS
_audit_creation_date              2020-11-30 
_audit_creation_method            'lammps2cif' 
_symmetry_space_group_name_H-M    'P1' 
_symmetry_Int_Tables_number       1 
_symmetry_cell_setting            triclinic 
loop_ 
_symmetry_equiv_pos_as_xyz 
  x,y,z 
_cell_length_a                    32.40079431 
_cell_length_b                    31.814623126829837 
_cell_length_c                    23.811992747677255 
_cell_angle_alpha                 102.05820861973078 
_cell_angle_beta                  83.79331630110798 
_cell_angle_gamma                 89.93015764416742 
loop_ 
_atom_site_label 
_atom_site_type_symbol 
_atom_site_fract_x 
_atom_site_fract_y 
_atom_site_fract_z 
_atom_site_charge 
N1          N  0.80167586  0.19462400  0.00176338    -0.03000
C2          C  0.76699756  0.22046367  0.01365794    -0.00400
C3          C  0.74345924  0.21395302  0.06287106    -0.23300
C4          C  0.76440697  0.18376528  0.08299270    -0.23500
C5          C  0.80025483  0.17311197  0.04570149    -0.00500
H6          H  0.71536207  0.23140592  0.08391324     0.13300
H7          H  0.75605678  0.17330746  0.12307354     0.13300
N8          N  0.27228248  0.94244838  0.90073041    -0.03000
C9          C  0.31031567  0.92405068  0.90011370    -0.00400
C10         C  0.33759312  0.93345336  0.85608881    -0.23300
C11         C  0.31568121  0.95797998  0.82782788    -0.23500
C12         C  0.27560582  0.96275328  0.85548630    -0.00500
H13         H  0.36953319  0.92221163  0.84436787     0.13300
H14         H  0.32729126  0.96945778  0.78954243     0.13300
Zr15       Zr  0.55340269  0.54737490  0.10526641     2.17500
O16         O  0.61189382  0.53089469  0.15436459    -0.50800
O17         O  0.51174461  0.51532615  0.17758725    -0.74000
O18         O  0.57035907  0.60567150  0.18410235    -0.80800
O19         O  0.57407667  0.44738167  0.98550312    -0.82500
O20         O  0.54307915  0.66925709  0.17423018    -0.78200
O21         O  0.59909820  0.48322064  0.06718631    -0.89800
O22         O  0.44392306  0.51622835  0.16149081    -0.75800
O23         O  0.49186123  0.59187765  0.12743718    -0.85300
O24         O  0.49989255  0.50561985  0.06064529    -0.85000
O25         O  0.56926675  0.61029753  0.06561434    -0.71700
O26         O  0.57593613  0.53276795  0.00338215    -0.83800
Zr27       Zr  0.47402897  0.59631910  0.94112069     2.26400
Zr28       Zr  0.50691374  0.65416718  0.08729400     2.06300
Zr29       Zr  0.52182678  0.49166341  0.95959995     2.10000
Zr30       Zr  0.43870855  0.55051631  0.08168161     1.78800
O31         O  0.56287047  0.44250978  0.88123624    -0.92600
O32         O  0.39752385  0.59576276  0.16398751    -0.40500
O33         O  0.45858370  0.53335238  0.97943678    -0.77100
O34         O  0.45191049  0.61347930  0.04340346    -0.95800
O35         O  0.52740364  0.63852782  0.98535628    -0.89100
O36         O  0.53616784  0.55336405  0.91912227    -0.91900
C37         C  0.47316623  0.50735539  0.18935250     1.01800
C38         C  0.59936737  0.45110713  0.02391548     1.14800
C39         C  0.56396326  0.64652421  0.20058256     1.05500
O40         O  0.45678995  0.69144042  0.16545400    -0.94100
O41         O  0.46658979  0.70513097  0.04933630    -0.89800
O42         O  0.44307689  0.66842519  0.96643936    -0.83000
C43         C  0.44527446  0.70233557  0.00609555     1.12200
O44         O  0.66074690  0.59182812  0.98398050    -0.96100
Zr45       Zr  0.58897333  0.59507563  0.96296364     1.88900
O46         O  0.51194426  0.62970880  0.86930633    -0.72700
O47         O  0.55112962  0.71570965  0.08398705    -0.52000
O48         O  0.62276476  0.66410215  0.98378481    -0.96600
O49         O  0.63229512  0.54444829  0.88885675    -0.53900
O50         O  0.58105484  0.62313355  0.87621434    -0.73200
C51         C  0.55027032  0.63443653  0.85230620     0.99100
O52         O  0.40527591  0.59794072  0.90811541    -0.62000
O53         O  0.47545168  0.43330008  0.97211098    -0.56800
O54         O  0.46603754  0.54179601  0.85287162    -0.93500
O55         O  0.49600668  0.48065442  0.86666486    -0.91900
O56         O  0.39947399  0.48493239  0.06011270    -0.92300
O57         O  0.36743629  0.56040965  0.06199488    -0.91100
C58         C  0.47755636  0.50192195  0.83619521     1.18000
H59         H  0.49613972  0.47875927  0.07321566     0.33900
H60         H  0.42654133  0.63074066  0.05132851     0.44800
H61         H  0.54421778  0.54535554  0.87793314     0.38300
H62         H  0.59181819  0.62545254  0.08372703     0.34800
H63         H  0.37727203  0.57615568  0.17850016     0.26600
H64         H  0.54081182  0.73749037  0.11884937     0.32500
H65         H  0.60902901  0.68243531  0.96211532     0.38400
H66         H  0.39807619  0.47937168  0.01787298     0.32900
H67         H  0.45730668  0.43104562  0.94077749     0.31700
H68         H  0.54782011  0.41513700  0.87642319     0.33400
H69         H  0.62294098  0.54755944  0.85168571     0.32400
H70         H  0.36917217  0.58034303  0.03504573     0.36400
H71         H  0.39455730  0.56870259  0.90723517     0.29100
H72         H  0.60174500  0.53606213  0.19604085     0.33400
H73         H  0.67779542  0.60008172  0.95106529     0.36200
H74         H  0.49337442  0.40700430  0.96092599     0.28800
H75         H  0.38741028  0.61623397  0.94037291     0.41700
H76         H  0.42982155  0.67863924  0.15647162     0.31700
H77         H  0.41657636  0.60265438  0.19428930     0.39400
H78         H  0.62282731  0.51571168  0.89372762     0.31200
H79         H  0.57875388  0.70653041  0.09190898     0.31300
H80         H  0.63244749  0.55345464  0.15066118     0.31500
N81         N  0.39689631  0.33436655  0.44878385    -0.03000
C82         C  0.38146221  0.29560237  0.42588206    -0.00400
C83         C  0.39741872  0.26375588  0.44944933    -0.23300
C84         C  0.42253211  0.28348764  0.48936720    -0.23500
C85         C  0.42105245  0.32677984  0.48891921    -0.00500
H86         H  0.38814893  0.23056132  0.44304953     0.13300
H87         H  0.43721051  0.26841016  0.51909199     0.13300
N88         N  0.65372336  0.79931571  0.54221760    -0.03000
C89         C  0.67223798  0.83806520  0.55388489    -0.00400
C90         C  0.65401381  0.86273648  0.60531569    -0.23300
C91         C  0.62362622  0.83853450  0.62657583    -0.23500
C92         C  0.62467539  0.79956239  0.58784697    -0.00500
H93         H  0.66468773  0.89318594  0.62798900     0.13300
H94         H  0.60609566  0.84659610  0.66889624     0.13300
Zr95       Zr  0.05915490  0.09579750  0.35543709     2.17500
O96         O  0.05544150  0.15997732  0.31505596    -0.50800
O97         O  0.09881787  0.05122626  0.27119769    -0.74000
O98         O  0.12233557  0.13731488  0.36169275    -0.80800
O99         O  0.95676886  0.05489074  0.30750201    -0.82500
O100        O  0.14125757  0.14350678  0.45242141    -0.78200
O101        O  0.00962691  0.09767845  0.28548887    -0.89800
O102        O  0.11276194  0.98634457  0.29181629    -0.75800
O103        O  0.10570759  0.05805468  0.39966575    -0.85300
O104        O  0.03477784  0.02430853  0.34502189    -0.85000
O105        O  0.05481034  0.13330962  0.45484927    -0.71700
O106        O  0.99014202  0.10270463  0.40486923    -0.83800
Zr107      Zr  0.00753774  0.02832562  0.53957040     2.26400
Zr108      Zr  0.10026990  0.09393779  0.49930726     2.06300
Zr109      Zr  0.96691134  0.03086734  0.39527937     2.10000
Zr110      Zr  0.08091322  0.98682473  0.38956656     1.78800
O111        O  0.89571531  0.05437478  0.39268169    -0.92600
O112        O  0.15450337  0.97464569  0.39551375    -0.40500
O113        O  0.01198040  0.99121463  0.43962360    -0.77100
O114        O  0.07687187  0.02153227  0.48949697    -0.95800
O115        O  0.03175772  0.10009551  0.54995423    -0.89100
O116        O  0.96176017  0.06666225  0.49478782    -0.91900
C117        C  0.11472303  0.01296832  0.25781416     1.01800
C118        C  0.97482391  0.07951470  0.27655655     1.14800
C119        C  0.14484115  0.15253887  0.40205596     1.05500
O120        O  0.17178194  0.06766332  0.49102538    -0.94100
O121        O  0.11243169  0.06991966  0.58689313    -0.89800
O122        O  0.05874692  0.02814021  0.60948321    -0.83000
C123        C  0.09410426  0.04557651  0.61812184     1.12200
O124        O  0.97363073  0.20281119  0.46888095    -0.96100
Zr125      Zr  0.98615682  0.13791332  0.50461434     1.88900
O126        O  0.96573170  0.07352339  0.62205608    -0.72700
O127        O  0.11123246  0.15904602  0.57004117    -0.52000
O128        O  0.01430337  0.20214172  0.56113404    -0.96600
O129        O  0.91330486  0.15239735  0.49643181    -0.53900
O130        O  0.95316692  0.13873670  0.60156987    -0.73200
C131        C  0.94987059  0.11188311  0.63516669     0.99100
O132        O  0.00212714  0.96555629  0.58352512    -0.62000
O133        O  0.96001505  0.96319276  0.32711898    -0.56800
O134        O  0.94655527  0.98201788  0.52917931    -0.93500
O135        O  0.92110958  0.98868911  0.44594556    -0.91900
O136        O  0.05858490  0.92091409  0.32972021    -0.92300
O137        O  0.09163034  0.92243590  0.42699786    -0.91100
C138        C  0.91997891  0.97376566  0.49192458     1.18000
H139        H  0.03339234  0.01069715  0.30511677     0.33900
H140        H  0.09464706  0.00491709  0.50713080     0.44800
H141        H  0.93359930  0.06670622  0.51279903     0.38300
H142        H  0.06415788  0.16238535  0.45682317     0.34800
H143        H  0.16116995  0.94563960  0.37132060     0.26600
H144        H  0.08976212  0.15877419  0.60286317     0.32500
H145        H  0.99229316  0.21295744  0.59313708     0.38400
H146        H  0.04023710  0.93058481  0.30402913     0.32900
H147        H  0.96012900  0.94074806  0.35032857     0.31700
H148        H  0.88447574  0.03175166  0.36346886     0.33400
H149        H  0.89720956  0.13507626  0.52073775     0.32400
H150        H  0.06964053  0.92435201  0.45979000     0.36400
H151        H  0.03038095  0.95232876  0.57716872     0.29100
H152        H  0.08105326  0.15945415  0.28812256     0.33400
H153        H  0.95592344  0.22208996  0.50035600     0.36200
H154        H  0.93120473  0.96398132  0.31706732     0.28800
H155        H  0.99700029  0.97713692  0.62569613     0.41700
H156        H  0.18263880  0.06620597  0.45015353     0.31700
H157        H  0.16912451  0.99438250  0.37342582     0.39400
H158        H  0.90921136  0.13833584  0.45628593     0.31200
H159        H  0.13775505  0.15354899  0.58468585     0.31300
H160        H  0.05849433  0.18445089  0.34759184     0.31500
C161        C  0.82893976  0.91503334  0.48379704     0.30300
C162        C  0.79136579  0.90276080  0.46172155    -0.36100
C163        C  0.76570203  0.87793750  0.49227533     0.16300
C164        C  0.77634908  0.86599968  0.54135830     0.22100
C165        C  0.81439704  0.87782452  0.56313431    -0.34200
C166        C  0.84011402  0.90293144  0.53252760     0.16200
O167        O  0.85579178  0.94069641  0.46389432    -0.26200
C168        C  0.88479185  0.94555317  0.50009868     0.06000
C169        C  0.87692248  0.92253658  0.54375873    -0.31100
O170        O  0.74562097  0.84711496  0.56665236    -0.22900
C171        C  0.71524859  0.84621231  0.53278801    -0.02900
C172        C  0.72597777  0.86517641  0.48598203    -0.17300
H173        H  0.78200712  0.91343997  0.42461291     0.20700
H174        H  0.82245397  0.86973670  0.60260150     0.19000
H175        H  0.89494953  0.92136066  0.57912767     0.19000
H176        H  0.70621756  0.87229007  0.45517168     0.14800
C177        C  0.21517732  0.23592532  0.40389122     0.30300
C178        C  0.23420386  0.27383560  0.42902896    -0.36100
C179        C  0.27561151  0.27865137  0.40739328     0.16300
C180        C  0.29678171  0.24804551  0.36414252     0.22100
C181        C  0.27711203  0.21119442  0.33719121    -0.34200
C182        C  0.23579183  0.20640915  0.35871581     0.16200
O183        O  0.17957471  0.22150986  0.42385211    -0.26200
C184        C  0.17705006  0.18275040  0.39020162     0.06000
C185        C  0.21087567  0.17178986  0.34856747    -0.31100
O186        O  0.33721640  0.25358077  0.35991624    -0.22900
C187        C  0.34221157  0.28874561  0.39981702    -0.02900
C188        C  0.30476205  0.30606025  0.43009430    -0.17300
H189        H  0.21905227  0.29609123  0.46628229     0.20700
H190        H  0.29404382  0.18600149  0.30542724     0.19000
H191        H  0.21781147  0.14122533  0.31896529     0.19000
H192        H  0.30050935  0.33061081  0.46942543     0.14800
C193        C  0.43679111  0.41307149  0.37852931     0.30300
C194        C  0.46883554  0.43721784  0.35723154    -0.36100
C195        C  0.46049631  0.45610854  0.31130888     0.16300
C196        C  0.42286670  0.45214097  0.28877897     0.22100
C197        C  0.39067322  0.42845962  0.31049948    -0.34200
C198        C  0.39929274  0.40890681  0.35567118     0.16200
O199        O  0.43951739  0.38917019  0.41704412    -0.26200
C200        C  0.40331716  0.36936727  0.41908672     0.06000
C201        C  0.37698854  0.38047410  0.38167366    -0.31100
O202        O  0.42249449  0.47020274  0.24389370    -0.22900
C203        C  0.46044086  0.48572436  0.23711525    -0.02900
C204        C  0.48550090  0.47803852  0.27796354    -0.17300
H205        H  0.49884636  0.43941703  0.37352094     0.20700
H206        H  0.36161892  0.42398487  0.29170521     0.19000
H207        H  0.34693626  0.36789936  0.37237946     0.19000
H208        H  0.51760791  0.48642139  0.28160899     0.14800
C209        C  0.45049003  0.45853661  0.69615500     0.30300
C210        C  0.43046835  0.45543948  0.64579441    -0.36100
C211        C  0.43686946  0.41646725  0.60460927     0.16300
C212        C  0.46108401  0.38300683  0.61278133     0.22100
C213        C  0.48115925  0.38615247  0.66251581    -0.34200
C214        C  0.47486745  0.42483882  0.70322191     0.16200
O215        O  0.44793385  0.49110785  0.74159339    -0.26200
C216        C  0.47095506  0.47762025  0.77789152     0.06000
C217        C  0.48844318  0.43674693  0.75581246    -0.31100
O218        O  0.46046939  0.34841867  0.57151581    -0.22900
C219        C  0.43590703  0.35955463  0.53554638    -0.02900
C220        C  0.42030751  0.40168938  0.55388712    -0.17300
H221        H  0.41058018  0.48110435  0.63973612     0.20700
H222        H  0.49953521  0.35972903  0.66973592     0.19000
H223        H  0.50799942  0.41809019  0.77611505     0.19000
H224        H  0.39776655  0.41796390  0.53501743     0.14800
C225        C  0.60642101  0.71801569  0.31314475     0.30300
C226        C  0.62004837  0.75768357  0.34271760    -0.36100
C227        C  0.63343121  0.75835462  0.39719786     0.16300
C228        C  0.63259956  0.72270138  0.42174974     0.22100
C229        C  0.61977849  0.68275115  0.39159823    -0.34200
C230        C  0.60715928  0.68187626  0.33652330     0.16200
O231        O  0.59106861  0.71062102  0.26274638    -0.26200
C232        C  0.58234225  0.66893684  0.25300514     0.06000
C233        C  0.59209396  0.64938136  0.29735575    -0.31100
O234        O  0.64221905  0.73177023  0.47564561    -0.22900
C235        C  0.65062918  0.77356538  0.48514965    -0.02900
C236        C  0.64558286  0.79163932  0.43770258    -0.17300
H237        H  0.61938647  0.78633906  0.32502921     0.20700
H238        H  0.61867440  0.65454680  0.41039127     0.19000
H239        H  0.58763413  0.61628216  0.30089029     0.19000
H240        H  0.64684578  0.82520568  0.43536371     0.14800
C241        C  0.57118037  0.73133320  0.66399915     0.30300
C242        C  0.54071055  0.72332637  0.70675400    -0.36100
C243        C  0.55175017  0.69357216  0.73878533     0.16300
C244        C  0.59031861  0.67336476  0.72994838     0.22100
C245        C  0.62031561  0.68025822  0.68573328    -0.34200
C246        C  0.60905583  0.70962051  0.65302483     0.16200
O247        O  0.57010817  0.76319569  0.63657183    -0.26200
C248        C  0.60727324  0.76128185  0.60617656     0.06000
C249        C  0.63259742  0.72809712  0.61411638    -0.31100
O250        O  0.59528977  0.64991773  0.76862617    -0.22900
C251        C  0.55912212  0.65463234  0.80199373    -0.02900
C252        C  0.53083272  0.68123759  0.78512824    -0.17300
H253        H  0.51135853  0.74101719  0.71672841     0.20700
H254        H  0.65105083  0.66550473  0.67926964     0.19000
H255        H  0.66548343  0.72278189  0.60037462     0.19000
H256        H  0.49988400  0.69129149  0.80548627     0.14800
C257        C  0.20998465  0.94381264  0.02929365     0.30300
C258        C  0.19855719  0.93158605  0.08208544    -0.36100
C259        C  0.17270735  0.96077380  0.12341976     0.16300
C260        C  0.15898737  0.99937737  0.11352089     0.22100
C261        C  0.16999035  0.01138014  0.06045198    -0.34200
C262        C  0.19581229  0.98213713  0.01907246     0.16200
O263        O  0.23703130  0.92335702  0.98695260    -0.26200
C264        C  0.23989475  0.94851043  0.94853136     0.06000
C265        C  0.21481719  0.98559883  0.96635138    -0.31100
O266        O  0.13678035  0.02269859  0.15918655    -0.22900
C267        C  0.13616092  0.99871176  0.19891158    -0.02900
C268        C  0.15789074  0.95972810  0.17892121    -0.17300
H269        H  0.21021112  0.90205524  0.09105134     0.20700
H270        H  0.16016253  0.04197695  0.05262414     0.19000
H271        H  0.21349143  0.01293747  0.94612044     0.19000
H272        H  0.16275283  0.93470044  0.20227384     0.14800
C273        C  0.18741725  0.98724854  0.79239765     0.30300
C274        C  0.14969824  0.97888095  0.76789355    -0.36100
C275        C  0.13961753  0.00537846  0.73032132     0.16300
C276        C  0.16502017  0.03776277  0.71791717     0.22100
C277        C  0.20229842  0.04634373  0.74271551    -0.34200
C278        C  0.21232804  0.01995382  0.77990417     0.16200
O279        O  0.20493392  0.96421974  0.82431914    -0.26200
C280        C  0.24145984  0.98261556  0.83230475     0.06000
C281        C  0.24749292  0.01740515  0.80560494    -0.31100
O282        O  0.15160536  0.05658702  0.67867145    -0.22900
C283        C  0.11677710  0.03648618  0.66551200    -0.02900
C284        C  0.10765278  0.00430329  0.69660383    -0.17300
H285        H  0.13039050  0.95252962  0.77577306     0.20700
H286        H  0.22295429  0.07087879  0.73190151     0.19000
H287        H  0.27506831  0.03632683  0.80245088     0.19000
H288        H  0.08237982  0.98203538  0.69278528     0.14800
C289        C  0.36222292  0.86128508  0.97573148     0.30300
C290        C  0.39650337  0.84923955  0.00099483    -0.36100
C291        C  0.40075410  0.80527128  0.00106497     0.16300
C292        C  0.37350377  0.77527466  0.97690021     0.22100
C293        C  0.33856802  0.78748758  0.95344451    -0.34200
C294        C  0.33386925  0.83147155  0.95440154     0.16200
O295        O  0.35555389  0.89921950  0.96362178    -0.26200
C296        C  0.32168031  0.89408195  0.93594990     0.06000
C297        C  0.30673994  0.85258921  0.92932911    -0.31100
O298        O  0.38547986  0.73554512  0.97613956    -0.22900
C299        C  0.42041673  0.73996326  0.00127985    -0.02900
C300        C  0.43132801  0.78270726  0.01822938    -0.17300
H301        H  0.41936360  0.87218926  0.01688004     0.20700
H302        H  0.31752693  0.76403490  0.93343745     0.19000
H303        H  0.28250423  0.83880217  0.90378387     0.19000
H304        H  0.45879476  0.79507306  0.03752212     0.14800
C305        C  0.86193598  0.11126229  0.10972824     0.30300
C306        C  0.86755720  0.08285582  0.14603193    -0.36100
C307        C  0.90402078  0.08728113  0.17303288     0.16300
C308        C  0.93342886  0.11739175  0.16486057     0.22100
C309        C  0.92808689  0.14557429  0.12760467    -0.34200
C310        C  0.89129858  0.14121816  0.10049855     0.16200
O311        O  0.82746999  0.11641855  0.08709665    -0.26200
C312        C  0.83475757  0.14956686  0.06183623     0.06000
C313        C  0.87409701  0.16628703  0.06850640    -0.31100
O314        O  0.96342944  0.11803550  0.19867320    -0.22900
C315        C  0.95283597  0.08789939  0.22866744    -0.02900
C316        C  0.91621437  0.06781270  0.21421645    -0.17300
H317        H  0.84394254  0.06044914  0.15521078     0.20700
H318        H  0.94997330  0.17051597  0.12240853     0.19000
H319        H  0.88622162  0.19548502  0.05722942     0.19000
H320        H  0.89983628  0.04371991  0.23338870     0.14800
C321        C  0.85336340  0.18468652  0.86286615     0.30300
C322        C  0.86519685  0.19601573  0.80942526    -0.36100
C323        C  0.88920257  0.16514042  0.76756626     0.16300
C324        C  0.90037822  0.12562611  0.77730078     0.22100
C325        C  0.88844101  0.11425804  0.83050062    -0.34200
C326        C  0.86501862  0.14530527  0.87250513     0.16200
O327        O  0.83037429  0.20821359  0.90795326    -0.26200
C328        C  0.82796399  0.18379508  0.94737848     0.06000
C329        C  0.84873195  0.14416493  0.92722601    -0.31100
O330        O  0.92285908  0.10165987  0.73232569    -0.22900
C331        C  0.92636645  0.12610102  0.69302784    -0.02900
C332        C  0.90601279  0.16598711  0.71269201    -0.17300
H333        H  0.85637475  0.22676076  0.80106783     0.20700
H334        H  0.89699455  0.08337709  0.83871098     0.19000
H335        H  0.85015533  0.11738609  0.94846920     0.19000
H336        H  0.90401142  0.19186684  0.68987822     0.14800
C337        C  0.71185891  0.29686537  0.96829928     0.30300
C338        C  0.67410850  0.31136925  0.95455307    -0.36100
C339        C  0.66220625  0.35409491  0.97982279     0.16300
C340        C  0.68577442  0.38124514  0.01594229     0.22100
C341        C  0.72434257  0.36710407  0.02825316    -0.34200
C342        C  0.73629413  0.32409616  0.00297752     0.16200
O343        O  0.72409757  0.25620813  0.95956273    -0.26200
C344        C  0.75744933  0.25699655  0.98779354     0.06000
C345        C  0.76671387  0.29863965  0.01487243    -0.31100
O346        O  0.66688470  0.41905852  0.03799328    -0.22900
C347        C  0.63083256  0.41586919  0.01528875    -0.02900
C348        C  0.62654382  0.37616687  0.97877744    -0.17300
H349        H  0.65390752  0.28989963  0.92928345     0.20700
H350        H  0.74256125  0.38733987  0.05819084     0.19000
H351        H  0.78799112  0.30775161  0.04715843     0.19000
H352        H  0.60047961  0.36498500  0.95528942     0.14800
loop_ 
_geom_bond_atom_site_label_1 
_geom_bond_atom_site_label_2 
_geom_bond_distance 
_geom_bond_site_symmetry_2 
_ccdc_geom_bond_type 
N1            C5   1.362       .  A
N1            C2   1.360       .  A
N1          C328   1.448   1_554  S
C2            C3   1.381       .  A
C2          C344   1.472   1_554  S
C3            C4   1.369       .  A
C3            H6   1.083       .  S
C4            C5   1.379       .  A
C4            H7   1.083       .  S
C5          C312   1.473       .  S
N8           C12   1.362       .  A
N8            C9   1.361       .  A
N8          C264   1.443       .  S
C9           C10   1.379       .  A
C9          C296   1.476       .  S
C10          C11   1.374       .  A
C10          H13   1.082       .  S
C11          C12   1.384       .  A
C11          H14   1.082       .  S
C12         C280   1.485       .  S
Zr15         O16   2.443       .  S
Zr15         O17   2.462       .  S
Zr15         O18   2.457       .  S
Zr15         O21   2.472       .  S
Zr15         O23   2.390       .  S
Zr15         O24   2.390       .  S
Zr15         O25   2.419       .  S
Zr15         O26   2.404       .  S
O16          H72   0.991       .  S
O16          H80   0.991       .  S
O17          C37   1.288       .  A
O18          C39   1.286       .  A
O19         Zr29   2.411       .  S
O19          C38   1.280   1_556  A
O20         Zr28   2.449       .  S
O20          C39   1.286       .  A
O21          C38   1.290       .  A
O22         Zr30   2.401       .  S
O22          C37   1.277       .  A
O23         Zr28   2.402       .  S
O23         Zr30   2.387       .  S
O24         Zr29   2.382   1_554  S
O24         Zr30   2.388       .  S
O24          H59   0.966       .  S
O25         Zr28   2.401       .  S
O25         Zr45   2.405   1_554  S
O25          H62   0.967       .  S
O26         Zr29   2.388   1_554  S
O26         Zr45   2.397   1_554  S
Zr27         O52   2.445       .  S
Zr27         O46   2.423       .  S
Zr27         O54   2.467       .  S
Zr27         O42   2.433       .  S
Zr27         O33   2.401       .  S
Zr27         O34   2.410   1_556  S
Zr27         O35   2.390       .  S
Zr27         O36   2.379       .  S
Zr28         O47   2.437       .  S
Zr28         O40   2.435       .  S
Zr28         O41   2.453       .  S
Zr28         O34   2.406       .  S
Zr28         O35   2.393   1_554  S
Zr29         O31   2.436       .  S
Zr29         O53   2.436       .  S
Zr29         O55   2.408       .  S
Zr29         O33   2.388       .  S
Zr29         O36   2.386       .  S
Zr30         O56   2.436       .  S
Zr30         O57   2.438       .  S
Zr30         O32   2.438       .  S
Zr30         O33   2.397   1_554  S
Zr30         O34   2.389       .  S
O31          H68   0.990       .  S
O32          H63   0.991       .  S
O32          H77   0.990       .  S
O34          H60   0.967       .  S
O35         Zr45   2.373       .  S
O36         Zr45   2.365       .  S
O36          H61   0.967       .  S
C37         C203   1.471       .  S
C38         C347   1.481       .  S
C39         C232   1.487       .  S
O40          H76   0.990       .  S
O41          C43   1.289       .  A
O42          C43   1.284   1_556  A
C43         C299   1.473       .  S
O44         Zr45   2.438       .  S
O44          H73   0.991       .  S
Zr45         O48   2.436       .  S
Zr45         O49   2.439       .  S
Zr45         O50   2.452       .  S
O46          C51   1.283       .  A
O47          H64   0.990       .  S
O47          H79   0.990       .  S
O48          H65   0.990       .  S
O49          H69   0.990       .  S
O49          H78   0.990       .  S
O50          C51   1.287       .  A
C51         C251   1.476       .  S
O52          H71   0.990       .  S
O52          H75   0.990       .  S
O53          H67   0.990       .  S
O53          H74   0.990       .  S
O54          C58   1.289       .  A
O55          C58   1.280       .  A
O56          H66   0.990       .  S
O57          H70   0.990       .  S
C58         C216   1.479       .  S
N81          C85   1.357       .  A
N81          C82   1.359       .  A
N81         C200   1.443       .  S
C82          C83   1.381       .  A
C82         C187   1.471       .  S
C83          C84   1.371       .  A
C83          H86   1.083       .  S
C84          C85   1.380       .  A
C84          H87   1.082       .  S
C85         C219   1.478       .  S
N88          C92   1.357       .  A
N88          C89   1.361       .  A
N88         C235   1.446       .  S
C89          C90   1.380       .  A
C89         C171   1.472       .  S
C90          C91   1.369       .  A
C90          H93   1.083       .  S
C91          C92   1.380       .  A
C91          H94   1.083       .  S
C92         C248   1.470       .  S
Zr95         O96   2.440       .  S
Zr95         O97   2.436       .  S
Zr95         O98   2.439       .  S
Zr95        O101   2.444       .  S
Zr95        O103   2.386       .  S
Zr95        O104   2.381       .  S
Zr95        O105   2.407       .  S
Zr95        O106   2.399   1_455  S
O96         H152   0.990       .  S
O96         H160   0.990       .  S
O97         C117   1.284       .  A
O98         C119   1.284       .  A
O99        Zr109   2.424       .  S
O99         C118   1.284       .  A
O100       Zr108   2.433       .  S
O100        C119   1.284       .  A
O101        C118   1.286   1_455  A
O102       Zr110   2.439       .  S
O102        C117   1.286   1_565  A
O103       Zr108   2.396       .  S
O103       Zr110   2.378   1_545  S
O104       Zr109   2.374   1_455  S
O104       Zr110   2.377   1_545  S
O104        H139   0.964       .  S
O105       Zr108   2.397       .  S
O105       Zr125   2.394   1_455  S
O105        H142   0.967       .  S
O106       Zr109   2.380       .  S
O106       Zr125   2.395       .  S
Zr107       O132   2.439   1_545  S
Zr107       O126   2.450   1_455  S
Zr107       O134   2.469   1_445  S
Zr107       O122   2.475       .  S
Zr107       O113   2.415   1_545  S
Zr107       O114   2.414       .  S
Zr107       O115   2.388       .  S
Zr107       O116   2.389   1_455  S
Zr108       O127   2.435       .  S
Zr108       O120   2.436       .  S
Zr108       O121   2.436       .  S
Zr108       O114   2.399       .  S
Zr108       O115   2.396       .  S
Zr109       O111   2.435       .  S
Zr109       O133   2.437   1_545  S
Zr109       O135   2.398   1_545  S
Zr109       O113   2.393   1_645  S
Zr109       O116   2.393       .  S
Zr110       O136   2.435       .  S
Zr110       O137   2.437       .  S
Zr110       O112   2.439       .  S
Zr110       O113   2.405       .  S
Zr110       O114   2.394   1_565  S
O111        H148   0.990       .  S
O112        H143   0.990       .  S
O112        H157   0.990       .  S
O114        H140   0.965       .  S
O115       Zr125   2.383   1_455  S
O116       Zr125   2.375       .  S
O116        H141   0.965       .  S
C117        C267   1.476   1_545  S
C118        C315   1.477       .  S
C119        C184   1.464       .  S
O120        H156   0.990       .  S
O121        C123   1.285       .  A
O122        C123   1.291       .  A
C123        C283   1.487       .  S
O124       Zr125   2.441       .  S
O124        H153   0.991       .  S
Zr125       O128   2.437   1_655  S
Zr125       O129   2.441       .  S
Zr125       O130   2.432       .  S
O126        C131   1.287       .  A
O127        H144   0.990       .  S
O127        H159   0.990       .  S
O128        H145   0.990   1_455  S
O129        H149   0.990       .  S
O129        H158   0.990       .  S
O130        C131   1.284       .  A
C131        C331   1.481       .  S
O132        H151   0.990       .  S
O132        H155   0.990   1_455  S
O133        H147   0.990       .  S
O133        H154   0.990       .  S
O134        C138   1.291       .  A
O135        C138   1.278       .  A
O136        H146   0.990       .  S
O137        H150   0.990       .  S
C138        C168   1.473       .  S
C161        C166   1.379       .  A
C161        C162   1.402       .  A
C161        O167   1.312       .  A
C162        C163   1.398       .  A
C162        H173   1.082       .  S
C163        C172   1.364       .  A
C163        C164   1.379       .  A
C164        C165   1.410       .  A
C164        O170   1.318       .  A
C165        C166   1.406       .  A
C165        H174   1.082       .  S
C166        C169   1.373       .  A
O167        C168   1.330       .  A
C168        C169   1.394       .  A
C169        H175   1.082       .  S
O170        C171   1.335       .  A
C171        C172   1.387       .  A
C172        H176   1.082       .  S
C177        C182   1.381       .  A
C177        C178   1.405       .  A
C177        O183   1.319       .  A
C178        C179   1.405       .  A
C178        H189   1.083       .  S
C179        C188   1.364       .  A
C179        C180   1.381       .  A
C180        C181   1.403       .  A
C180        O186   1.318       .  A
C181        C182   1.401       .  A
C181        H190   1.082       .  S
C182        C185   1.362       .  A
O183        C184   1.331       .  A
C184        C185   1.388       .  A
C185        H191   1.082       .  S
O186        C187   1.330       .  A
C187        C188   1.392       .  A
C188        H192   1.083       .  S
C193        C198   1.380       .  A
C193        C194   1.406       .  A
C193        O199   1.318       .  A
C194        C195   1.403       .  A
C194        H205   1.082       .  S
C195        C204   1.367       .  A
C195        C196   1.380       .  A
C196        C197   1.404       .  A
C196        O202   1.316       .  A
C197        C198   1.402       .  A
C197        H206   1.082       .  S
C198        C201   1.365       .  A
O199        C200   1.333       .  A
C200        C201   1.393       .  A
C201        H207   1.081       .  S
O202        C203   1.332       .  A
C203        C204   1.391       .  A
C204        H208   1.082       .  S
C209        C214   1.380       .  A
C209        C210   1.410       .  A
C209        O215   1.328       .  A
C210        C211   1.410       .  A
C210        H221   1.082       .  S
C211        C220   1.368       .  A
C211        C212   1.380       .  A
C212        C213   1.397       .  A
C212        O218   1.315       .  A
C213        C214   1.398       .  A
C213        H222   1.083       .  S
C214        C217   1.351       .  A
O215        C216   1.335       .  A
C216        C217   1.392       .  A
C217        H223   1.083       .  S
O218        C219   1.329       .  A
C219        C220   1.396       .  A
C220        H224   1.082       .  S
C225        C230   1.379       .  A
C225        C226   1.407       .  A
C225        O231   1.325       .  A
C226        C227   1.408       .  A
C226        H237   1.082       .  S
C227        C236   1.365       .  A
C227        C228   1.379       .  A
C228        C229   1.410       .  A
C228        O234   1.326       .  A
C229        C230   1.410       .  A
C229        H238   1.082       .  S
C230        C233   1.369       .  A
O231        C232   1.334       .  A
C232        C233   1.396       .  A
C233        H239   1.082       .  S
O234        C235   1.335       .  A
C235        C236   1.395       .  A
C236        H240   1.082       .  S
C241        C246   1.380       .  A
C241        C242   1.403       .  A
C241        O247   1.318       .  A
C242        C243   1.402       .  A
C242        H253   1.082       .  S
C243        C252   1.360       .  A
C243        C244   1.380       .  A
C244        C245   1.406       .  A
C244        O250   1.323       .  A
C245        C246   1.406       .  A
C245        H254   1.082       .  S
C246        C249   1.364       .  A
O247        C248   1.331       .  A
C248        C249   1.392       .  A
C249        H255   1.083       .  S
O250        C251   1.332       .  A
C251        C252   1.392       .  A
C252        H256   1.083       .  S
C257        C262   1.380       .  A
C257        C258   1.405       .  A
C257        O263   1.320   1_554  A
C258        C259   1.404       .  A
C258        H269   1.082       .  S
C259        C268   1.364       .  A
C259        C260   1.380       .  A
C260        C261   1.405   1_565  A
C260        O266   1.320   1_565  A
C261        C262   1.405   1_545  A
C261        H270   1.082       .  S
C262        C265   1.363   1_554  A
O263        C264   1.332       .  A
C264        C265   1.395       .  A
C265        H271   1.082   1_565  S
O266        C267   1.332   1_545  A
C267        C268   1.393       .  A
C268        H272   1.082       .  S
C273        C278   1.379   1_565  A
C273        C274   1.412       .  A
C273        O279   1.327       .  A
C274        C275   1.413   1_565  A
C274        H285   1.082       .  S
C275        C284   1.374       .  A
C275        C276   1.379       .  A
C276        C277   1.403       .  A
C276        O282   1.320       .  A
C277        C278   1.402       .  A
C277        H286   1.082       .  S
C278        C281   1.360       .  A
O279        C280   1.335       .  A
C280        C281   1.391   1_565  A
C281        H287   1.083       .  S
O282        C283   1.332       .  A
C283        C284   1.398       .  A
C284        H288   1.082   1_545  S
C289        C294   1.380       .  A
C289        C290   1.408   1_556  A
C289        O295   1.321       .  A
C290        C291   1.406       .  A
C290        H301   1.082       .  S
C291        C300   1.368       .  A
C291        C292   1.380   1_554  A
C292        C293   1.404       .  A
C292        O298   1.318       .  A
C293        C294   1.403       .  A
C293        H302   1.082       .  S
C294        C297   1.364       .  A
O295        C296   1.333       .  A
C296        C297   1.390       .  A
C297        H303   1.082       .  S
O298        C299   1.331   1_556  A
C299        C300   1.393       .  A
C300        H304   1.082       .  S
C305        C310   1.381       .  A
C305        C306   1.399       .  A
C305        O311   1.316       .  A
C306        C307   1.399       .  A
C306        H317   1.082       .  S
C307        C316   1.356       .  A
C307        C308   1.380       .  A
C308        C309   1.409       .  A
C308        O314   1.325       .  A
C309        C310   1.409       .  A
C309        H318   1.082       .  S
C310        C313   1.368       .  A
O311        C312   1.328       .  A
C312        C313   1.394       .  A
C313        H319   1.082       .  S
O314        C315   1.335       .  A
C315        C316   1.390       .  A
C316        H320   1.083       .  S
C321        C326   1.379       .  A
C321        C322   1.408       .  A
C321        O327   1.326       .  A
C322        C323   1.409       .  A
C322        H333   1.082       .  S
C323        C332   1.366       .  A
C323        C324   1.380       .  A
C324        C325   1.404       .  A
C324        O330   1.322       .  A
C325        C326   1.405       .  A
C325        H334   1.082       .  S
C326        C329   1.360       .  A
O327        C328   1.334       .  A
C328        C329   1.396       .  A
C329        H335   1.081       .  S
O330        C331   1.332       .  A
C331        C332   1.395       .  A
C332        H336   1.082       .  S
C337        C342   1.380   1_556  A
C337        C338   1.402       .  A
C337        O343   1.320       .  A
C338        C339   1.402       .  A
C338        H349   1.082       .  S
C339        C348   1.357       .  A
C339        C340   1.379   1_556  A
C340        C341   1.408       .  A
C340        O346   1.328       .  A
C341        C342   1.410       .  A
C341        H350   1.082       .  S
C342        C345   1.365       .  A
O343        C344   1.331       .  A
C344        C345   1.395   1_556  A
C345        H351   1.083       .  S
O346        C347   1.335       .  A
C347        C348   1.392   1_554  A
C348        H352   1.083       .  S
