geometry optimzed in LAMMPS
_audit_creation_date              2020-12-01 
_audit_creation_method            'lammps2cif' 
_symmetry_space_group_name_H-M    'P1' 
_symmetry_Int_Tables_number       1 
_symmetry_cell_setting            triclinic 
loop_ 
_symmetry_equiv_pos_as_xyz 
  x,y,z 
_cell_length_a                    28.17013346 
_cell_length_b                    34.267539757428565 
_cell_length_c                    30.85081606193317 
_cell_angle_alpha                 90.03510132201015 
_cell_angle_beta                  89.9783286345127 
_cell_angle_gamma                 89.95464279102242 
loop_ 
_atom_site_label 
_atom_site_type_symbol 
_atom_site_fract_x 
_atom_site_fract_y 
_atom_site_fract_z 
_atom_site_charge 
O1          O  0.82250939  0.59602387  0.46004002    -0.55200
C2          C  0.85031843  0.52439679  0.58190190     0.77500
O3          O  0.94884192  0.59579930  0.53383753    -0.56300
C4          C  0.84844007  0.62427177  0.44742708     0.77400
C5          C  0.81172747  0.65007560  0.58477897     0.79800
Cd6        Cd  0.86082429  0.59381956  0.53242367     1.37500
O7          O  0.82511176  0.52913688  0.54801820    -0.55200
O8          O  0.78986081  0.62571289  0.56118322    -0.54000
C9          C  0.95189583  0.56652850  0.50840991     0.79800
O10         O  0.85686124  0.64893402  0.58429328    -0.56300
O11         O  0.87614598  0.55257252  0.59396741    -0.54800
O12         O  0.87667400  0.63919552  0.47469321    -0.54800
O13         O  0.91377531  0.55146089  0.49476128    -0.54000
C14         C  0.89954496  0.28856169  0.69123799     0.89100
C15         C  0.95385570  0.28702608  0.69570482    -0.51100
C16         C  0.97315432  0.32036997  0.71263864     0.12100
C17         C  0.93591895  0.35222304  0.72341340     0.23000
C18         C  0.88100705  0.29848455  0.73677560    -0.51800
C19         C  0.89990512  0.33195004  0.75351680     0.12200
C20         C  0.88935533  0.32498822  0.66416311    -0.51400
C21         C  0.90784361  0.35832793  0.68106163     0.12700
H22         H  0.97504726  0.26183699  0.68654087     0.17300
H23         H  0.95108483  0.37949758  0.73711261     0.03000
H24         H  0.85425741  0.28138060  0.75356961     0.17600
H25         H  0.86741556  0.32472989  0.63516781     0.17300
C26         C  0.19120142  0.74294842  0.25419449     0.89100
C27         C  0.20262261  0.70684346  0.28139190    -0.51100
C28         C  0.18441734  0.67315485  0.26509476     0.12100
C29         C  0.15535970  0.67862545  0.22316428     0.23000
C30         C  0.20896920  0.73295583  0.20846034    -0.51800
C31         C  0.19037588  0.69915607  0.19234192     0.12200
C32         C  0.13679209  0.74380207  0.25060524    -0.51400
C33         C  0.11777246  0.71013568  0.23418733     0.12700
H34         H  0.22520718  0.70757634  0.30996095     0.17300
H35         H  0.14044056  0.65108481  0.20990289     0.03000
H36         H  0.23501850  0.75028945  0.19104634     0.17600
H37         H  0.11536193  0.76888650  0.25965502     0.17300
O38         O  0.26799560  0.50262207  0.39849473    -0.55200
C39         C  0.24201567  0.40715925  0.49928534     0.77500
O40         O  0.14233968  0.43949779  0.41126290    -0.56300
C41         C  0.24290029  0.50771218  0.36458931     0.77400
C42         C  0.27885720  0.38222940  0.36193796     0.79800
Cd43       Cd  0.23036288  0.43871005  0.41440473     1.37500
O44         O  0.26767802  0.43578984  0.48729066    -0.55200
O45         O  0.30095975  0.40722328  0.38452151    -0.54000
C46         C  0.13996603  0.46838211  0.43728931     0.79800
O47         O  0.23372359  0.38287176  0.36345235    -0.56300
O48         O  0.21418585  0.39241636  0.47153665    -0.54800
O49         O  0.21622563  0.48000977  0.35269555    -0.54800
O50         O  0.17837773  0.48182022  0.45230135    -0.54000
C51         C  0.89994155  0.74356639  0.19303801     0.89100
C52         C  0.88822471  0.70764364  0.16564960    -0.51100
C53         C  0.90641726  0.67382726  0.18159016     0.12100
C54         C  0.93582370  0.67899009  0.22334856     0.23000
C55         C  0.88246645  0.73340149  0.23879625    -0.51800
C56         C  0.90107568  0.69945178  0.25451622     0.12200
C57         C  0.95437692  0.74425674  0.19629070    -0.51400
C58         C  0.97341783  0.71044212  0.21234457     0.12700
H59         H  0.86531869  0.70857036  0.13729841     0.17300
H60         H  0.95074292  0.65132692  0.23630623     0.03000
H61         H  0.85645659  0.75064541  0.25643374     0.17600
H62         H  0.97579829  0.76932800  0.18731499     0.17300
O63         O  0.82087693  0.50451765  0.04756620    -0.55200
C64         C  0.84815338  0.40873563  0.94666212     0.77500
O65         O  0.94673722  0.44170973  0.03461936    -0.56300
C66         C  0.84573048  0.50942451  0.08166035     0.77400
C67         C  0.81048368  0.38377600  0.08354808     0.79800
Cd68       Cd  0.85876024  0.44067089  0.03152269     1.37500
O69         O  0.82190300  0.43714222  0.95842158    -0.55200
O70         O  0.78821615  0.40870461  0.06098902    -0.54000
C71         C  0.94896769  0.47071936  0.00879778     0.79800
O72         O  0.85561507  0.38481162  0.08234383    -0.56300
O73         O  0.87615888  0.39447518  0.97457450    -0.54800
O74         O  0.87234279  0.48165285  0.09353906    -0.54800
O75         O  0.91046930  0.48425883  0.99402684    -0.54000
C76         C  0.19144855  0.28883018  0.75543897     0.89100
C77         C  0.13714261  0.28718063  0.75093461    -0.51100
C78         C  0.11767669  0.32047560  0.73402925     0.12100
C79         C  0.15474640  0.35239525  0.72329487     0.23000
C80         C  0.20996067  0.29878187  0.70993509    -0.51800
C81         C  0.19090504  0.33218804  0.69320809     0.12200
C82         C  0.20142427  0.32529753  0.78256873    -0.51400
C83         C  0.18271294  0.35858370  0.76568660     0.12700
H84         H  0.11607343  0.26195450  0.76007307     0.17300
H85         H  0.13943921  0.37962477  0.70960284     0.03000
H86         H  0.23677935  0.28171145  0.69312311     0.17600
H87         H  0.22327698  0.32509736  0.81161555     0.17300
O88         O  0.26342320  0.53070073  0.89781033    -0.55200
C89         C  0.24143755  0.62640848  0.99767908     0.77500
O90         O  0.23174270  0.65045797  0.86072489    -0.56300
C91         C  0.23810150  0.52571773  0.86404398     0.77400
C92         C  0.13713236  0.56828967  0.93723116     0.79800
Cd93       Cd  0.22800308  0.59557158  0.91286678     1.37500
O94         O  0.26742358  0.59827970  0.98473047    -0.55200
O95         O  0.17534472  0.55341307  0.95097352    -0.54000
C96         C  0.27687549  0.65081258  0.85930392     0.79800
O97         O  0.14000340  0.59741841  0.91162815    -0.56300
O98         O  0.21269468  0.64117743  0.97074466    -0.54800
O99         O  0.21226674  0.55383823  0.85176723    -0.54800
O100        O  0.29876252  0.62622308  0.88257944    -0.54000
C101        C  0.69042204  0.78929807  0.69112531     0.89100
C102        C  0.70182313  0.82546394  0.66403995    -0.51100
C103        C  0.68350199  0.85910996  0.68040660     0.12100
C104        C  0.65436288  0.85354021  0.72228247     0.23000
C105        C  0.70806782  0.79918956  0.73689734    -0.51800
C106        C  0.68935906  0.83294689  0.75307306     0.12200
C107        C  0.63600911  0.78841753  0.69465143    -0.51400
C108        C  0.61687766  0.82204422  0.71113717     0.12700
H109        H  0.72448340  0.82480188  0.63550333     0.17300
H110        H  0.63935559  0.88104783  0.73560718     0.03000
H111        H  0.73414490  0.78184278  0.75428376     0.17600
H112        H  0.61465983  0.76334184  0.68552350     0.17300
O113        O  0.76632387  0.02944329  0.54667546    -0.55200
C114        C  0.74036587  0.12490139  0.44631335     0.77500
O115        O  0.64110467  0.09421188  0.53527355    -0.56300
C116        C  0.74182858  0.02453169  0.58098019     0.77400
C117        C  0.77849828  0.15000633  0.58341694     0.80200
Cd118      Cd  0.72912257  0.09372131  0.53143942     1.37500
O119        O  0.76605071  0.09627717  0.45835052    -0.55200
O120        O  0.80024009  0.12511510  0.56035717    -0.54000
C121        C  0.63796055  0.06512791  0.50960832     0.79800
O122        O  0.73335184  0.14934537  0.58261026    -0.56300
O123        O  0.71261475  0.13976691  0.47408453    -0.54800
O124        O  0.71569590  0.05245310  0.59334005    -0.54800
O125        O  0.67599050  0.05092945  0.49457619    -0.54000
C126        C  0.39933339  0.24355460  0.25357277     0.89100
C127        C  0.45364678  0.24494347  0.24914292    -0.51100
C128        C  0.47290971  0.21152174  0.23229808     0.12100
C129        C  0.43562619  0.17973430  0.22157672     0.23000
C130        C  0.38084500  0.23359657  0.20805426    -0.51800
C131        C  0.39967515  0.20003685  0.19141604     0.12200
C132        C  0.38902307  0.20720856  0.28072590    -0.51400
C133        C  0.40746639  0.17378528  0.26392455     0.12700
H134        H  0.47486811  0.27009675  0.25825955     0.17300
H135        H  0.45075319  0.15239086  0.20795187     0.03000
H136        H  0.35410142  0.25070709  0.19123543     0.17600
H137        H  0.36701850  0.20758160  0.30969475     0.17300
O138        O  0.32098494  0.93585462  0.48553746    -0.55200
C139        C  0.34950267  0.00813370  0.36360148     0.77500
O140        O  0.44773058  0.93822612  0.41275501    -0.56300
C141        C  0.34728689  0.90777543  0.49807750     0.77400
C142        C  0.31153612  0.88258455  0.36053738     0.79800
Cd143      Cd  0.35976260  0.93888675  0.41337746     1.37500
O144        O  0.32369467  0.00333487  0.39712120    -0.55200
O145        O  0.28930346  0.90709747  0.38371341    -0.54000
C146        C  0.44981238  0.96735728  0.43846955     0.79800
O147        O  0.35666889  0.88362759  0.36162060    -0.56300
O148        O  0.37586441  0.98008158  0.35201521    -0.54800
O149        O  0.37592739  0.89326608  0.47083269    -0.54800
O150        O  0.41119560  0.98173494  0.45200130    -0.54000
C151        C  0.69127824  0.24278246  0.18954798     0.89100
C152        C  0.63696103  0.24453045  0.19405864    -0.51100
C153        C  0.61745215  0.21126546  0.21095745     0.12100
C154        C  0.65447882  0.17928522  0.22168656     0.23000
C155        C  0.70973559  0.23278845  0.23505634    -0.51800
C156        C  0.69060739  0.19942942  0.25178677     0.12200
C157        C  0.70123423  0.20629698  0.16241292    -0.51400
C158        C  0.68246071  0.17305020  0.17928858     0.12700
H159        H  0.61591692  0.26979587  0.18492301     0.17300
H160        H  0.63912766  0.15208655  0.23537525     0.03000
H161        H  0.73649941  0.24983795  0.25190562     0.17600
H162        H  0.72306654  0.20645959  0.13333848     0.17300
O163        O  0.76604901  0.93350864  0.96070758    -0.55200
C164        C  0.73709539  0.00560687  0.08100370     0.77500
O165        O  0.63881815  0.93252179  0.03442452    -0.56300
C166        C  0.74052462  0.90516125  0.94772098     0.77400
C167        C  0.77639648  0.88030650  0.08592340     0.79800
Cd168      Cd  0.72685755  0.93547960  0.03267389     1.37500
O169        O  0.76202459  0.00053393  0.04700270    -0.55200
O170        O  0.79799777  0.90465074  0.06214400    -0.54000
C171        C  0.63519651  0.96166210  0.00892631     0.79800
O172        O  0.73125544  0.88084579  0.08512870    -0.56300
O173        O  0.71159801  0.97747087  0.09371719    -0.54800
O174        O  0.71216082  0.88995574  0.97467619    -0.54800
O175        O  0.67302148  0.97704997  0.99506028    -0.54000
C176        C  0.39925289  0.78822668  0.75233091     0.89100
C177        C  0.38736669  0.82407385  0.77981478    -0.51100
C178        C  0.40536642  0.85795777  0.76391219     0.12100
C179        C  0.43477007  0.85293393  0.72210652     0.23000
C180        C  0.38168755  0.79843394  0.70661644    -0.51800
C181        C  0.40010062  0.83245284  0.69093760     0.12200
C182        C  0.45368336  0.78766460  0.74900880    -0.51400
C183        C  0.47253437  0.82154569  0.73300372     0.12700
H184        H  0.36447511  0.82304861  0.80818503     0.17300
H185        H  0.44953818  0.88065232  0.70919156     0.03000
H186        H  0.35576287  0.78115480  0.68897440     0.17600
H187        H  0.47524345  0.76262803  0.75791035     0.17300
O188        O  0.31896396  0.02738003  0.89758096    -0.55200
C189        C  0.34665493  0.12284048  0.99896747     0.77500
O190        O  0.44550179  0.08851058  0.91167247    -0.56300
C191        C  0.34432778  0.02227172  0.86380948     0.77400
C192        C  0.31010167  0.14781128  0.86195012     0.79800
Cd193      Cd  0.35755159  0.09070040  0.91427481     1.37500
O194        O  0.32038600  0.09447317  0.98723818    -0.55200
O195        O  0.28750781  0.12285846  0.88417923    -0.54000
C196        C  0.44706098  0.05956388  0.93763004     0.79800
O197        O  0.35521819  0.14672339  0.86364988    -0.56300
O198        O  0.37475352  0.13699729  0.97106811    -0.54800
O199        O  0.37159915  0.04973976  0.85238532    -0.54800
O200        O  0.40823663  0.04661717  0.95232927    -0.54000
C201        C  0.39078561  0.89501714  0.78180408    -0.15900
C202        C  0.37465188  0.92385920  0.79882973     0.08200
C203        C  0.35621031  0.95687560  0.82067429     0.10100
C204        C  0.34558353  0.98604145  0.84039292    -0.16700
C205        C  0.59059024  0.97794926  0.99586802    -0.15900
C206        C  0.55795607  0.99682058  0.98176757     0.08200
C207        C  0.52247720  0.02124430  0.96419442     0.10100
C208        C  0.49048488  0.04099650  0.95033914    -0.16700
C209        C  0.73465095  0.04234134  0.10336485    -0.15900
C210        C  0.72445103  0.07197317  0.12240909     0.08200
C211        C  0.70790661  0.10580312  0.14398620     0.10100
C212        C  0.69412468  0.13540264  0.16112672    -0.16700
C213        C  0.38424588  0.84950231  0.65061693    -0.15900
C214        C  0.37005636  0.86379347  0.61725996     0.08200
C215        C  0.35518808  0.88020322  0.57740069     0.10100
C216        C  0.34719914  0.89351564  0.54190115    -0.16700
C217        C  0.38340950  0.18323169  0.15100231    -0.15900
C218        C  0.36931004  0.16880873  0.11762078     0.08200
C219        C  0.35480056  0.15186254  0.07783466     0.10100
C220        C  0.34696503  0.13790694  0.04255174    -0.16700
C221        C  0.52383043  0.20755422  0.22465837    -0.10600
C222        C  0.56650963  0.20752390  0.21856374    -0.12200
C223        C  0.39483966  0.13629941  0.28189851    -0.15900
C224        C  0.38011949  0.10707141  0.29911837     0.08200
C225        C  0.36265967  0.07376345  0.32104234     0.10100
C226        C  0.35199724  0.04451665  0.34056129    -0.16700
C227        C  0.74035769  0.13945487  0.40253261    -0.15900
C228        C  0.73312642  0.15284543  0.36688883     0.08200
C229        C  0.71951962  0.16908537  0.32649450     0.10100
C230        C  0.70617379  0.18299304  0.29260082    -0.16700
C231        C  0.49360335  0.98468050  0.45209806    -0.15900
C232        C  0.52576632  0.00394572  0.46638944     0.08200
C233        C  0.56121739  0.02837062  0.48393695     0.10100
C234        C  0.59366983  0.04770656  0.49755185    -0.16700
C235        C  0.70489842  0.84947616  0.79375822    -0.15900
C236        C  0.71883760  0.86315467  0.82751554     0.08200
C237        C  0.73340083  0.87876782  0.86785089     0.10100
C238        C  0.74106419  0.89145662  0.90368860    -0.16700
C239        C  0.56600630  0.82613789  0.71895067    -0.10600
C240        C  0.52338629  0.82598760  0.72537182    -0.12200
C241        C  0.74032561  0.98811285  0.60402751    -0.15900
C242        C  0.73000923  0.95881143  0.62360380     0.08200
C243        C  0.71237375  0.92553537  0.64548187     0.10100
C244        C  0.69710274  0.89643103  0.66257253    -0.16700
C245        C  0.37729964  0.75275815  0.77037613    -0.15900
C246        C  0.35495494  0.72724578  0.78815176     0.08200
C247        C  0.32661427  0.70017220  0.81131183     0.10100
C248        C  0.30276382  0.67790034  0.83251166    -0.16700
C249        C  0.28505742  0.17620352  0.83605980    -0.15900
C250        C  0.26227177  0.19970406  0.81544712     0.08200
C251        C  0.23527155  0.22795430  0.79254678     0.10100
C252        C  0.21369345  0.25382522  0.77450951    -0.16700
C253        C  0.19457463  0.39621431  0.78374905    -0.15900
C254        C  0.20854318  0.42576768  0.80082092     0.08200
C255        C  0.22527723  0.45952364  0.82237738     0.10100
C256        C  0.23559431  0.48908043  0.84148767    -0.16700
C257        C  0.78509763  0.35545158  0.10924460    -0.15900
C258        C  0.76218771  0.33194127  0.12971432     0.08200
C259        C  0.73515020  0.30364732  0.15249738     0.10100
C260        C  0.71356445  0.27776256  0.17048217    -0.16700
C261        C  0.99277833  0.48870707  0.99626926    -0.15900
C262        C  0.02500126  0.50816855  0.98241550     0.08200
C263        C  0.06049742  0.53248543  0.96475918     0.10100
C264        C  0.09291935  0.55149770  0.95054037    -0.16700
C265        C  0.87776404  0.77893739  0.17492600    -0.15900
C266        C  0.85522053  0.80430839  0.15707099     0.08200
C267        C  0.82665288  0.83119373  0.13383509     0.10100
C268        C  0.80259256  0.85332768  0.11262881    -0.16700
C269        C  0.89207969  0.63671134  0.16372096    -0.15900
C270        C  0.87611015  0.60785724  0.14663572     0.08200
C271        C  0.85778985  0.57486342  0.12470287     0.10100
C272        C  0.84715930  0.54571646  0.10497116    -0.16700
C273        C  0.30446997  0.35439254  0.33573971    -0.15900
C274        C  0.32778786  0.33154994  0.31468466     0.08200
C275        C  0.35534725  0.30406802  0.29116853     0.10100
C276        C  0.37720219  0.27858235  0.27270977    -0.16700
C277        C  0.20679681  0.34872158  0.65254596    -0.15900
C278        C  0.22052591  0.36271093  0.61882065     0.08200
C279        C  0.23457058  0.37903952  0.57859414     0.10100
C280        C  0.24203132  0.39250494  0.54302390    -0.16700
C281        C  0.21318235  0.77830024  0.27262704    -0.15900
C282        C  0.23510857  0.80408115  0.29042554     0.08200
C283        C  0.26275826  0.83183390  0.31337456     0.10100
C284        C  0.28606126  0.85478453  0.33423862    -0.16700
C285        C  0.24192255  0.64034508  0.04165384    -0.15900
C286        C  0.23429271  0.65315474  0.07747347     0.08200
C287        C  0.21982684  0.66885487  0.11784680     0.10100
C288        C  0.20594665  0.68257990  0.15163887    -0.16700
C289        C  0.02429657  0.70611170  0.21994820    -0.10600
C290        C  0.06691595  0.70600508  0.22636384    -0.12200
C291        C  0.19805125  0.63586856  0.28304694    -0.15900
C292        C  0.21333687  0.60675974  0.30015506     0.08200
C293        C  0.23100510  0.57344449  0.32197723     0.10100
C294        C  0.24136465  0.54411476  0.34150432    -0.16700
C295        C  0.87738963  0.25360624  0.67201760    -0.15900
C296        C  0.85554659  0.22812392  0.65359493     0.08200
C297        C  0.82795317  0.20060564  0.63022329     0.10100
C298        C  0.80449060  0.17776214  0.60935506    -0.16700
C299        C  0.84847759  0.39370835  0.90305057    -0.15900
C300        C  0.85608632  0.37979583  0.86768956     0.08200
C301        C  0.87016271  0.36292368  0.82770782     0.10100
C302        C  0.88389805  0.34859724  0.79412550    -0.16700
C303        C  0.02406875  0.32424244  0.72029781    -0.10600
C304        C  0.06674086  0.32426639  0.72640603    -0.12200
C305        C  0.78587849  0.67778374  0.61093445    -0.15900
C306        C  0.76238307  0.70064641  0.63178241     0.08200
C307        C  0.73457899  0.72829600  0.65477979     0.10100
C308        C  0.71253203  0.75400596  0.67263101    -0.16700
C309        C  0.88531747  0.68241137  0.29485973    -0.15900
C310        C  0.87118616  0.66807316  0.32820356     0.08200
C311        C  0.85635410  0.65160220  0.36802857     0.10100
C312        C  0.84837338  0.63831420  0.40353243    -0.16700
C313        C  0.09611994  0.48643696  0.44970097    -0.15900
C314        C  0.06398217  0.50611055  0.46344591     0.08200
C315        C  0.02861135  0.53067027  0.48100697     0.10100
C316        C  0.99620314  0.54978333  0.49517914    -0.16700
C317        C  0.85279344  0.48794885  0.60481251    -0.15900
C318        C  0.86340573  0.45862641  0.62422702     0.08200
C319        C  0.88077017  0.42520854  0.64602953     0.10100
C320        C  0.89537332  0.39588679  0.66316001    -0.16700
loop_ 
_geom_bond_atom_site_label_1 
_geom_bond_atom_site_label_2 
_geom_bond_distance 
_geom_bond_site_symmetry_2 
_ccdc_geom_bond_type 
O1            C4   1.274       .  A
O1           Cd6   2.482       .  S
C2           O11   1.265       .  A
C2            O7   1.274       .  A
C2          C317   1.437       .  S
O3            C9   1.276       .  A
O3           Cd6   2.481       .  S
C4           O12   1.266       .  A
C4          C312   1.437       .  S
C5           O10   1.272       .  A
C5            O8   1.268       .  A
C5          C305   1.442       .  S
Cd6          O13   2.382       .  S
Cd6          O12   2.407       .  S
Cd6          O11   2.407       .  S
Cd6           O7   2.482       .  S
Cd6          O10   2.477       .  S
Cd6           O8   2.444       .  S
C9           O13   1.264       .  A
C9          C316   1.432       .  S
C14          C15   1.537       .  S
C14          C20   1.529       .  S
C14          C18   1.536       .  S
C14         C295   1.475       .  S
C15          H22   1.086       .  S
C15          C16   1.369       .  D
C16          C17   1.549       .  S
C16         C303   1.460   1_655  S
C17          C21   1.542       .  S
C17          C19   1.541       .  S
C17          H23   1.111       .  S
C18          H24   1.087       .  S
C18          C19   1.366       .  D
C19         C302   1.448       .  S
C20          H25   1.088       .  S
C20          C21   1.360       .  D
C21         C320   1.444       .  S
C26          C27   1.529       .  S
C26          C32   1.537       .  S
C26          C30   1.535       .  S
C26         C281   1.475       .  S
C27          H34   1.087       .  S
C27          C28   1.360       .  D
C28          C29   1.543       .  S
C28         C291   1.445       .  S
C29          C33   1.549       .  S
C29          C31   1.541       .  S
C29          H35   1.111       .  S
C30          H36   1.087       .  S
C30          C31   1.365       .  D
C31         C288   1.446       .  S
C32          H37   1.086       .  S
C32          C33   1.369       .  D
C33         C290   1.460       .  S
O38          C41   1.275       .  A
O38         Cd43   2.483       .  S
C39          O48   1.266       .  A
C39          O44   1.274       .  A
C39         C280   1.440       .  S
O40          C46   1.276       .  A
O40         Cd43   2.482       .  S
C41          O49   1.265       .  A
C41         C294   1.437       .  S
C42          O47   1.272       .  A
C42          O45   1.268       .  A
C42         C273   1.443       .  S
Cd43         O50   2.385       .  S
Cd43         O49   2.406       .  S
Cd43         O48   2.416       .  S
Cd43         O44   2.485       .  S
Cd43         O47   2.477       .  S
Cd43         O45   2.442       .  S
C46          O50   1.264       .  A
C46         C313   1.433       .  S
C51          C52   1.529       .  S
C51          C57   1.537       .  S
C51          C55   1.535       .  S
C51         C265   1.474       .  S
C52          H59   1.088       .  S
C52          C53   1.359       .  D
C53          C54   1.542       .  S
C53         C269   1.444       .  S
C54          C58   1.549       .  S
C54          C56   1.540       .  S
C54          H60   1.111       .  S
C55          H61   1.087       .  S
C55          C56   1.365       .  D
C56         C309   1.445       .  S
C57          H62   1.086       .  S
C57          C58   1.370       .  D
C58         C289   1.460   1_655  S
O63          C66   1.275       .  A
O63         Cd68   2.483       .  S
C64          O73   1.266       .  A
C64          O69   1.274       .  A
C64         C299   1.440       .  S
O65          C71   1.276       .  A
O65         Cd68   2.480       .  S
C66          O74   1.265       .  A
C66         C272   1.437       .  S
C67          O72   1.272       .  A
C67          O70   1.268       .  A
C67         C257   1.443       .  S
Cd68         O75   2.386   1_554  S
Cd68         O74   2.404       .  S
Cd68         O73   2.414   1_554  S
Cd68         O69   2.486   1_554  S
Cd68         O72   2.477       .  S
Cd68         O70   2.445       .  S
C71          O75   1.264   1_554  A
C71         C261   1.433   1_554  S
C76          C77   1.537       .  S
C76          C82   1.530       .  S
C76          C80   1.536       .  S
C76         C252   1.476       .  S
C77          H84   1.086       .  S
C77          C78   1.369       .  D
C78          C79   1.549       .  S
C78         C304   1.460       .  S
C79          C83   1.542       .  S
C79          C81   1.541       .  S
C79          H85   1.111       .  S
C80          H86   1.087       .  S
C80          C81   1.366       .  D
C81         C277   1.448       .  S
C82          H87   1.087       .  S
C82          C83   1.360       .  D
C83         C253   1.444       .  S
O88          C91   1.274       .  A
O88         Cd93   2.479       .  S
C89          O98   1.266       .  A
C89          O94   1.274       .  A
C89         C285   1.438   1_556  S
O90          C96   1.272       .  A
O90         Cd93   2.478       .  S
C91          O99   1.265       .  A
C91         C256   1.437       .  S
C92          O97   1.276       .  A
C92          O95   1.264       .  A
C92         C264   1.432       .  S
Cd93        O100   2.440       .  S
Cd93         O99   2.407       .  S
Cd93         O98   2.411       .  S
Cd93         O94   2.482       .  S
Cd93         O97   2.480       .  S
Cd93         O95   2.382       .  S
C96         O100   1.267       .  A
C96         C248   1.442       .  S
C101        C102   1.529       .  S
C101        C107   1.537       .  S
C101        C105   1.535       .  S
C101        C308   1.474       .  S
C102        H109   1.087       .  S
C102        C103   1.360       .  D
C103        C104   1.542       .  S
C103        C244   1.444       .  S
C104        C108   1.549       .  S
C104        C106   1.540       .  S
C104        H110   1.111       .  S
C105        H111   1.087       .  S
C105        C106   1.365       .  D
C106        C235   1.445       .  S
C107        H112   1.086       .  S
C107        C108   1.369       .  D
C108        C239   1.460       .  S
O113        C116   1.275       .  A
O113       Cd118   2.484       .  S
C114        O123   1.266       .  A
C114        O119   1.274       .  A
C114        C227   1.440       .  S
O115        C121   1.276       .  A
O115       Cd118   2.482       .  S
C116        O124   1.265       .  A
C116        C241   1.437   1_545  S
C117        O122   1.272       .  A
C117        O120   1.268       .  A
C117        C298   1.443       .  S
Cd118       O125   2.385       .  S
Cd118       O124   2.407       .  S
Cd118       O123   2.417       .  S
Cd118       O119   2.485       .  S
Cd118       O122   2.477       .  S
Cd118       O120   2.443       .  S
C121        O125   1.264       .  A
C121        C234   1.433       .  S
C126        C127   1.537       .  S
C126        C132   1.529       .  S
C126        C130   1.536       .  S
C126        C276   1.475       .  S
C127        H134   1.086       .  S
C127        C128   1.369       .  D
C128        C129   1.549       .  S
C128        C221   1.460       .  S
C129        C133   1.542       .  S
C129        C131   1.541       .  S
C129        H135   1.111       .  S
C130        H136   1.087       .  S
C130        C131   1.366       .  D
C131        C217   1.448       .  S
C132        H137   1.088       .  S
C132        C133   1.360       .  D
C133        C223   1.444       .  S
O138        C141   1.274       .  A
O138       Cd143   2.482       .  S
C139        O148   1.266   1_545  A
C139        O144   1.275       .  A
C139        C226   1.437       .  S
O140        C146   1.276       .  A
O140       Cd143   2.478       .  S
C141        O149   1.266       .  A
C141        C216   1.438       .  S
C142        O147   1.272       .  A
C142        O145   1.268       .  A
C142        C284   1.443       .  S
Cd143       O150   2.383       .  S
Cd143       O149   2.408       .  S
Cd143       O148   2.405       .  S
Cd143       O144   2.482   1_565  S
Cd143       O147   2.478       .  S
Cd143       O145   2.443       .  S
C146        O150   1.265       .  A
C146        C231   1.433       .  S
C151        C152   1.538       .  S
C151        C157   1.530       .  S
C151        C155   1.536       .  S
C151        C260   1.476       .  S
C152        H159   1.086       .  S
C152        C153   1.369       .  D
C153        C154   1.548       .  S
C153        C222   1.460       .  S
C154        C158   1.542       .  S
C154        C156   1.541       .  S
C154        H160   1.111       .  S
C155        H161   1.087       .  S
C155        C156   1.366       .  D
C156        C230   1.448       .  S
C157        H162   1.087       .  S
C157        C158   1.360       .  D
C158        C212   1.444       .  S
O163        C166   1.274       .  A
O163       Cd168   2.480   1_556  S
C164        O173   1.265   1_545  A
C164        O169   1.274       .  A
C164        C209   1.437       .  S
O165        C171   1.276       .  A
O165       Cd168   2.483       .  S
C166        O174   1.266       .  A
C166        C238   1.437       .  S
C167        O172   1.272       .  A
C167        O170   1.267       .  A
C167        C268   1.442       .  S
Cd168       O175   2.382   1_554  S
Cd168       O174   2.409   1_554  S
Cd168       O173   2.408       .  S
Cd168       O169   2.480   1_565  S
Cd168       O172   2.478       .  S
Cd168       O170   2.441       .  S
C171        O175   1.264   1_554  A
C171        C205   1.433   1_554  S
C176        C177   1.529       .  S
C176        C182   1.537       .  S
C176        C180   1.535       .  S
C176        C245   1.474       .  S
C177        H184   1.088       .  S
C177        C178   1.359       .  D
C178        C179   1.542       .  S
C178        C201   1.444       .  S
C179        C183   1.549       .  S
C179        C181   1.540       .  S
C179        H185   1.111       .  S
C180        H186   1.087       .  S
C180        C181   1.365       .  D
C181        C213   1.445       .  S
C182        H187   1.086       .  S
C182        C183   1.369       .  D
C183        C240   1.460       .  S
O188        C191   1.275       .  A
O188       Cd193   2.481       .  S
C189        O198   1.266       .  A
C189        O194   1.275       .  A
C189        C220   1.440   1_556  S
O190        C196   1.276       .  A
O190       Cd193   2.480       .  S
C191        O199   1.266       .  A
C191        C204   1.436   1_545  S
C192        O197   1.273       .  A
C192        O195   1.268       .  A
C192        C249   1.443       .  S
Cd193       O200   2.387       .  S
Cd193       O199   2.402       .  S
Cd193       O198   2.412       .  S
Cd193       O194   2.485       .  S
Cd193       O197   2.476       .  S
Cd193       O195   2.443       .  S
C196        O200   1.265       .  A
C196        C208   1.433       .  S
C201        C202   1.207       .  T
C202        C203   1.415       .  S
C203        C204   1.207       .  T
C205        C206   1.205       .  T
C206        C207   1.412   1_565  S
C207        C208   1.205       .  T
C209        C210   1.207       .  T
C210        C211   1.415       .  S
C211        C212   1.207       .  T
C213        C214   1.208       .  T
C214        C215   1.416       .  S
C215        C216   1.208       .  T
C217        C218   1.209       .  T
C218        C219   1.418       .  S
C219        C220   1.209       .  T
C221        C222   1.217       .  T
C223        C224   1.208       .  T
C224        C225   1.416       .  S
C225        C226   1.208       .  T
C227        C228   1.209       .  T
C228        C229   1.418       .  S
C229        C230   1.209       .  T
C231        C232   1.205   1_565  T
C232        C233   1.411       .  S
C233        C234   1.205       .  T
C235        C236   1.208       .  T
C236        C237   1.415       .  S
C237        C238   1.207       .  T
C239        C240   1.217       .  T
C241        C242   1.208       .  T
C242        C243   1.416       .  S
C243        C244   1.208       .  T
C245        C246   1.209       .  T
C246        C247   1.418       .  S
C247        C248   1.209       .  T
C249        C250   1.210       .  T
C250        C251   1.419       .  S
C251        C252   1.210       .  T
C253        C254   1.207       .  T
C254        C255   1.415       .  S
C255        C256   1.207       .  T
C257        C258   1.211       .  T
C258        C259   1.420       .  S
C259        C260   1.211       .  T
C261        C262   1.205   1_655  T
C262        C263   1.412       .  S
C263        C264   1.205       .  T
C265        C266   1.209       .  T
C266        C267   1.418       .  S
C267        C268   1.209       .  T
C269        C270   1.208       .  T
C270        C271   1.415       .  S
C271        C272   1.207       .  T
C273        C274   1.210       .  T
C274        C275   1.419       .  S
C275        C276   1.210       .  T
C277        C278   1.209       .  T
C278        C279   1.418       .  S
C279        C280   1.209       .  T
C281        C282   1.210       .  T
C282        C283   1.419       .  S
C283        C284   1.210       .  T
C285        C286   1.208       .  T
C286        C287   1.416       .  S
C287        C288   1.208       .  T
C289        C290   1.217       .  T
C291        C292   1.208       .  T
C292        C293   1.416       .  S
C293        C294   1.208       .  T
C295        C296   1.210       .  T
C296        C297   1.419       .  S
C297        C298   1.210       .  T
C299        C300   1.209       .  T
C300        C301   1.418       .  S
C301        C302   1.209       .  T
C303        C304   1.217       .  T
C305        C306   1.210       .  T
C306        C307   1.419       .  S
C307        C308   1.210       .  T
C309        C310   1.208       .  T
C310        C311   1.415       .  S
C311        C312   1.208       .  T
C313        C314   1.205       .  T
C314        C315   1.411       .  S
C315        C316   1.205   1_455  T
C317        C318   1.208       .  T
C318        C319   1.415       .  S
C319        C320   1.208       .  T
