geometry optimzed in LAMMPS
_audit_creation_date              2020-11-30 
_audit_creation_method            'lammps2cif' 
_symmetry_space_group_name_H-M    'P1' 
_symmetry_Int_Tables_number       1 
_symmetry_cell_setting            triclinic 
loop_ 
_symmetry_equiv_pos_as_xyz 
  x,y,z 
_cell_length_a                    27.35146679 
_cell_length_b                    34.627406259880146 
_cell_length_c                    24.014637798841044 
_cell_angle_alpha                 90.14007519904838 
_cell_angle_beta                  94.54710168420492 
_cell_angle_gamma                 90.01912902435937 
loop_ 
_atom_site_label 
_atom_site_type_symbol 
_atom_site_fract_x 
_atom_site_fract_y 
_atom_site_fract_z 
_atom_site_charge 
C1          C  0.76767599  0.23602142  0.97807071     0.03600
C2          C  0.78160019  0.21771870  0.02919376    -0.12500
C3          C  0.80102535  0.18023352  0.03060143     0.01100
C4          C  0.80665850  0.16071974  0.98014365    -0.11000
C5          C  0.79457370  0.17899297  0.92861586     0.03600
C6          C  0.77463213  0.21642318  0.92805953    -0.10500
H7          H  0.77632371  0.23209732  0.06830885     0.09200
H8          H  0.82276535  0.13213517  0.98112462     0.06800
H9          H  0.76504671  0.23044578  0.88849309     0.06600
C10         C  0.17020728  0.82021679  0.04742386     0.03600
C11         C  0.15070566  0.83763981  0.99765716    -0.12500
C12         C  0.12417778  0.87223577  0.99868630     0.01100
C13         C  0.11658733  0.88945417  0.05032002    -0.11000
C14         C  0.13365575  0.87153060  0.10063812     0.03600
C15         C  0.16024474  0.83686485  0.09887646    -0.10500
H16         H  0.15684762  0.82482454  0.95768064     0.09200
H17         H  0.09610518  0.91619315  0.05134479     0.06800
H18         H  0.17477901  0.82388026  0.13767478     0.06600
O19         O  0.39536076  0.59889020  0.97227512    -0.80400
O20         O  0.55240582  0.47708547  0.96952828    -0.65100
O21         O  0.43249094  0.52624705  0.99823136    -1.11700
C22         C  0.51302070  0.57279905  0.16099360     1.06500
O23         O  0.56882686  0.46059254  0.05913799    -0.78300
O24         O  0.48532723  0.47231466  0.11321432    -0.65900
Ni25       Ni  0.39121335  0.54812357  0.94024957     1.34900
C26         C  0.44620212  0.48858139  0.12615517     0.85200
O27         O  0.46235989  0.47571752  0.91458795    -0.78800
O28         O  0.38523984  0.49883446  0.90418413    -0.89100
C29         C  0.57646453  0.45780008  0.00756612     0.84800
O30         O  0.44000414  0.56298115  0.89258881    -0.67300
O31         O  0.52792056  0.53783149  0.16201914    -0.86600
C32         C  0.48648728  0.56355321  0.89709840     0.85600
C33         C  0.41874826  0.47586528  0.89056521     1.07200
H34         H  0.54364538  0.54804429  0.03529663     0.39000
O35         O  0.51868228  0.53018491  0.04549609    -1.09200
O36         O  0.43538125  0.52315224  0.11166790    -0.65900
Ni37       Ni  0.46032775  0.55826180  0.05743802     1.26300
O38         O  0.51206548  0.54432745  0.93405821    -0.66100
O39         O  0.49161789  0.58816361  0.11749765    -0.78400
C40         C  0.38415256  0.60728794  0.02105447     0.85000
O41         O  0.40135205  0.58785614  0.06294169    -0.65600
Ni42       Ni  0.54506803  0.50018554  0.10675746     1.27400
Ni43       Ni  0.49175024  0.50236459  0.98058887     1.26100
H44         H  0.41307978  0.50643651  0.01404020     0.39600
C45         C  0.26719620  0.32546342  0.47949964     0.03600
C46         C  0.28901105  0.33851511  0.43195087    -0.12500
C47         C  0.32567926  0.36704774  0.43663695     0.01100
C48         C  0.34223269  0.38134486  0.48983962    -0.11000
C49         C  0.32152093  0.36789310  0.53792292     0.03600
C50         C  0.28387725  0.34029543  0.53215735    -0.10500
H51         H  0.27565083  0.32811284  0.39095435     0.09200
H52         H  0.37025816  0.40353182  0.49361551     0.06800
H53         H  0.26829358  0.32980947  0.56930983     0.06600
C54         C  0.67133149  0.73935784  0.55414607     0.03600
C55         C  0.65419359  0.72549183  0.60396694    -0.12500
C56         C  0.61587244  0.69851161  0.60232694     0.01100
C57         C  0.59463253  0.68541336  0.55063222    -0.11000
C58         C  0.61201589  0.69824660  0.50045764     0.03600
C59         C  0.65004289  0.72555433  0.50253343    -0.10500
H60         H  0.67077409  0.73540523  0.64393477     0.09200
H61         H  0.56510058  0.66450210  0.54964991     0.06800
H62         H  0.66348490  0.73565839  0.46394159     0.06600
O63         O  0.02828671  0.11850262  0.55067055    -0.80400
O64         O  0.91160541  0.96570064  0.56606830    -0.65100
O65         O  0.01312951  0.03847364  0.54139138    -1.11700
C66         C  0.91434892  0.06288043  0.37267720     1.06500
O67         O  0.91421339  0.94339504  0.48040517    -0.78300
O68         O  0.96887801  0.97458010  0.40599428    -0.65900
Ni69       Ni  0.03468059  0.07422625  0.59885505     1.34900
C70         C  0.00937206  0.99218002  0.40535425     0.85200
O71         O  0.99793211  0.98216976  0.62272393    -0.78800
O72         O  0.04338061  0.03334789  0.65305605    -0.89100
C73         C  0.89969191  0.94058808  0.52902743     0.84800
O74         O  0.97261148  0.08729614  0.62380920    -0.67300
O75         O  0.89795090  0.02881142  0.37901786    -0.86600
C76         C  0.93304157  0.06853456  0.62509582     0.85600
C77         C  0.02793664  0.99885290  0.65847676     1.07200
H78         H  0.90246470  0.03814728  0.49906032     0.39000
O79         O  0.93065592  0.02330816  0.48940849    -1.09200
O80         O  0.01803413  0.02464129  0.42929774    -0.65900
Ni81       Ni  0.98107966  0.05927553  0.47399624     1.26300
O82         O  0.92580099  0.03588086  0.60165036    -0.66100
O83         O  0.94617127  0.07903384  0.40703621    -0.78400
C84         C  0.04218234  0.12210169  0.50180414     0.85000
O85         O  0.03215734  0.09643496  0.46477865    -0.65600
Ni86       Ni  0.90745923  0.98776819  0.43248442     1.27400
Ni87       Ni  0.96290761  0.00223841  0.55635113     1.26100
H88         H  0.04145418  0.02406185  0.53231243     0.39600
C89         C  0.75700698  0.81730222  0.57826839     0.20800
C90         C  0.77628762  0.85173244  0.60240126    -0.39000
C91         C  0.81417227  0.86905224  0.57488750     0.19800
C92         C  0.83107430  0.85317437  0.52704750     0.22500
C93         C  0.81190906  0.81896358  0.50310735    -0.39500
C94         C  0.77429424  0.80178744  0.53045201     0.21300
N95         N  0.71912348  0.79630537  0.59418943    -0.32800
C96         C  0.71200523  0.76763769  0.55564352    -0.10400
C97         C  0.74611121  0.77002906  0.51562852    -0.29200
N98         N  0.86482583  0.87600267  0.50658324    -0.45800
C99         C  0.86985821  0.90680379  0.54139029    -0.05100
C100        C  0.83906812  0.90351180  0.58490097    -0.22400
H101        H  0.76204416  0.86455755  0.63894081     0.19400
H102        H  0.82442657  0.80717537  0.46494299     0.18200
H103        H  0.74915822  0.75159913  0.47960826     0.14500
H104        H  0.83375979  0.92436687  0.61751559     0.14300
H105        H  0.69807246  0.80217047  0.62764638     0.32500
H106        H  0.88221967  0.87149509  0.46991784     0.35300
C107        C  0.12057754  0.19665818  0.45608870     0.20800
C108        C  0.15789731  0.21291604  0.42641737    -0.39000
C109        C  0.17927438  0.24707291  0.44911761     0.19800
C110        C  0.16436378  0.26365542  0.49742784     0.22500
C111        C  0.12709392  0.24765026  0.52676988    -0.39500
C112        C  0.10606530  0.21360249  0.50437571     0.21300
N113        N  0.09750988  0.16253929  0.44649986    -0.32800
C114        C  0.06873376  0.15778827  0.48951568    -0.10400
C115        C  0.07290267  0.18923363  0.52597803    -0.29200
N116        N  0.19251544  0.29411950  0.51298674    -0.45800
C117        C  0.22628111  0.29710450  0.47478850    -0.05100
C118        C  0.21869868  0.26847743  0.43371095    -0.22400
H119        H  0.17064858  0.19921010  0.38970003     0.19400
H120        H  0.11667219  0.25992700  0.56560493     0.18200
H121        H  0.05609471  0.19270445  0.56501216     0.14500
H122        H  0.24063267  0.26277203  0.39903506     0.14300
H123        H  0.10320270  0.14275659  0.41475831     0.32500
H124        H  0.18922246  0.31129961  0.54828860     0.35300
C125        C  0.35754268  0.42762785  0.32452036     0.20800
C126        C  0.36298777  0.46257539  0.29631813    -0.39000
C127        C  0.37993937  0.45959763  0.24291091     0.19800
C128        C  0.39160311  0.42450606  0.21961484     0.22500
C129        C  0.38482820  0.38933915  0.24728273    -0.39500
C130        C  0.36701575  0.39230241  0.30052594     0.21300
N131        N  0.34358245  0.42301569  0.37647546    -0.32800
C132        C  0.34307390  0.38443304  0.38555408    -0.10400
C133        C  0.35719535  0.36421863  0.33895139    -0.29200
N134        N  0.41360510  0.43002232  0.17199716    -0.45800
C135        C  0.41535888  0.46886385  0.16484250    -0.05100
C136        C  0.39387969  0.48813741  0.20770267    -0.22400
H137        H  0.35605641  0.49020422  0.31534200     0.19400
H138        H  0.39419031  0.36182997  0.22947380     0.18200
H139        H  0.36004712  0.33324401  0.33404282     0.14500
H140        H  0.39346699  0.51896902  0.21527096     0.14300
H141        H  0.33376368  0.44476165  0.40367287     0.32500
H142        H  0.42929510  0.40889273  0.14792544     0.35300
C143        C  0.36177328  0.42645937  0.77198915     0.20800
C144        C  0.32227717  0.41647396  0.73375694    -0.39000
C145        C  0.33467750  0.40347206  0.68134164     0.19800
C146        C  0.38274231  0.40104024  0.66755379     0.22500
C147        C  0.42240191  0.41059094  0.70617515    -0.39500
C148        C  0.41001683  0.42323111  0.75904957     0.21300
N149        N  0.35929269  0.44283706  0.82245643    -0.32800
C150        C  0.40621838  0.45016865  0.84229130    -0.10400
C151        C  0.43902831  0.43780583  0.80415881    -0.29200
N152        N  0.38446388  0.38910087  0.61422608    -0.45800
C153        C  0.33713692  0.38332168  0.59432434    -0.05100
C154        C  0.30515718  0.39198818  0.63513737    -0.22400
H155        H  0.28454015  0.41944088  0.74368493     0.19400
H156        H  0.46004698  0.40916502  0.69543479     0.18200
H157        H  0.47833190  0.44216523  0.80681827     0.14500
H158        H  0.26551722  0.39026368  0.63135144     0.14300
H159        H  0.32737860  0.45075503  0.84079713     0.32500
H160        H  0.41585372  0.38439313  0.59306192     0.35300
C161        C  0.56243942  0.63904185  0.38704487     0.20800
C162        C  0.54560815  0.60466019  0.36141029    -0.39000
C163        C  0.53499555  0.60634519  0.30349901     0.19800
C164        C  0.54012018  0.63981722  0.27308411     0.22500
C165        C  0.55749723  0.67431215  0.29883686    -0.39500
C166        C  0.56868858  0.67250895  0.35704461     0.21300
N167        N  0.57632598  0.64428865  0.44134947    -0.32800
C168        C  0.59203089  0.68134267  0.44654903    -0.10400
C169        C  0.58801313  0.69990909  0.39464170    -0.29200
N170        N  0.53003490  0.63297054  0.21803198    -0.45800
C171        C  0.51956564  0.59470258  0.21374439    -0.05100
C172        C  0.52192261  0.57734139  0.26617996    -0.22400
H173        H  0.54218780  0.57821151  0.38472834     0.19400
H174        H  0.56300799  0.70030469  0.27519004     0.18200
H175        H  0.59794833  0.72935767  0.38560483     0.14500
H176        H  0.51687897  0.54708824  0.27548340     0.14300
H177        H  0.57645751  0.62340370  0.47267092     0.32500
H178        H  0.53295557  0.65246060  0.18533557     0.35300
C179        C  0.54858841  0.65952087  0.71029848     0.20800
C180        C  0.50657897  0.64692747  0.73426023    -0.39000
C181        C  0.51476189  0.62528004  0.78307519     0.19800
C182        C  0.56114762  0.61630523  0.80672066     0.22500
C183        C  0.60357522  0.62942719  0.78292451    -0.39500
C184        C  0.59536998  0.65159009  0.73386720     0.21300
N185        N  0.55014377  0.67834452  0.66177510    -0.32800
C186        C  0.59826671  0.68294116  0.65420063    -0.10400
C187        C  0.62776201  0.66697263  0.69849257    -0.29200
N188        N  0.55816774  0.59322491  0.85167929    -0.45800
C189        C  0.50938207  0.58785290  0.85598318    -0.05100
C190        C  0.48160006  0.60766303  0.81415699    -0.22400
H191        H  0.47004702  0.65271564  0.71542482     0.19400
H192        H  0.64009979  0.62221873  0.80043378     0.18200
H193        H  0.66736530  0.66494586  0.70251251     0.14500
H194        H  0.44205712  0.60822656  0.80650311     0.14300
H195        H  0.52025771  0.68667240  0.63467098     0.32500
H196        H  0.58718965  0.58140286  0.87694284     0.35300
C197        C  0.11299480  0.93257368  0.21751066     0.20800
C198        C  0.10700988  0.96767030  0.24568813    -0.39000
C199        C  0.08778849  0.96496015  0.29807109     0.19800
C200        C  0.07496948  0.92986481  0.32026172     0.22500
C201        C  0.08190968  0.89468768  0.29259354    -0.39500
C202        C  0.10163798  0.89741034  0.24051871     0.21300
N203        N  0.12634938  0.92778691  0.16523201    -0.32800
C204        C  0.12413001  0.88926122  0.15497177    -0.10400
C205        C  0.10924041  0.86930035  0.20121762    -0.29200
N206        N  0.04979202  0.93539196  0.36544692    -0.45800
C207        C  0.04645137  0.97419726  0.37230437    -0.05100
C208        C  0.07069929  0.99361212  0.33171413    -0.22400
H209        H  0.11427656  0.99523111  0.22683973     0.19400
H210        H  0.07033577  0.86737819  0.30903005     0.18200
H211        H  0.10250731  0.83861777  0.20450826     0.14500
H212        H  0.07010704  0.02433370  0.32346776     0.14300
H213        H  0.13566675  0.94948561  0.13784120     0.32500
H214        H  0.03198121  0.91415778  0.38715860     0.35300
C215        C  0.05714975  0.93355697  0.77224402     0.20800
C216        C  0.05904573  0.89841835  0.80167253    -0.39000
C217        C  0.07828950  0.90046499  0.85773919     0.19800
C218        C  0.09371792  0.93493384  0.88263983     0.22500
C219        C  0.09257325  0.96980245  0.85304819    -0.39500
C220        C  0.07398292  0.96768299  0.79703224     0.21300
N221        N  0.03918068  0.93983056  0.71911154    -0.32800
C222        C  0.04510526  0.97819617  0.71012712    -0.10400
C223        C  0.06703800  0.99633759  0.75768373    -0.29200
N224        N  0.11020108  0.92942947  0.93624731    -0.45800
C225        C  0.10624234  0.89103096  0.94559359    -0.05100
C226        C  0.08644760  0.87195908  0.89753288    -0.22400
H227        H  0.04643410  0.87153670  0.78242912     0.19400
H228        H  0.10511546  0.99669812  0.87231265     0.18200
H229        H  0.07528585  0.02674155  0.76329765     0.14500
H230        H  0.07944271  0.84134724  0.89232764     0.14300
H231        H  0.02334670  0.91945625  0.69103465     0.32500
H232        H  0.12489370  0.95033147  0.96421963     0.35300
C233        C  0.30114569  0.68090296  0.05947540     0.20800
C234        C  0.26926479  0.70079332  0.09267641    -0.39000
C235        C  0.24557998  0.73319436  0.06771877     0.19800
C236        C  0.25302389  0.74464319  0.01391371     0.22500
C237        C  0.28451279  0.72473518  0.98071099    -0.39500
C238        C  0.30810578  0.69255460  0.00556712     0.21300
N239        N  0.32824992  0.64930968  0.07312740    -0.32800
C240        C  0.35221682  0.64093541  0.02725880    -0.10400
C241        C  0.34047907  0.66724537  0.98443755    -0.29200
N242        N  0.22705522  0.77648964  0.99995869    -0.45800
C243        C  0.20245356  0.78573817  0.04507440    -0.05100
C244        C  0.21327210  0.75925433  0.08831310    -0.22400
H245        H  0.26355123  0.69187497  0.13483162     0.19400
H246        H  0.29033585  0.73372468  0.93860069     0.18200
H247        H  0.35362661  0.66757991  0.94308512     0.14500
H248        H  0.19950588  0.75896325  0.12931340     0.14300
H249        H  0.32966908  0.63405750  0.11069011     0.32500
H250        H  0.22741428  0.79141047  0.96227133     0.35300
C251        C  0.85867370  0.09248191  0.23980451     0.20800
C252        C  0.83346167  0.08696209  0.18719012    -0.39000
C253        C  0.82983982  0.11943314  0.15242898     0.19800
C254        C  0.84907918  0.15493820  0.16921390     0.22500
C255        C  0.87480025  0.16038843  0.22181025    -0.39500
C256        C  0.87911877  0.12763567  0.25638013     0.21300
N257        N  0.86803599  0.06575977  0.27952659    -0.32800
C258        C  0.89523238  0.08357166  0.32176304    -0.10400
C259        C  0.90296223  0.12236187  0.30892599    -0.28000
N260        N  0.84060248  0.18116972  0.12835889    -0.45800
C261        C  0.81653521  0.16206744  0.08495187    -0.05100
C262        C  0.80924626  0.12343587  0.09843748    -0.22400
H263        H  0.81834514  0.05921847  0.17400393     0.19400
H264        H  0.89075186  0.18793929  0.23455864     0.18200
H265        H  0.92356001  0.14361285  0.33422583     0.14500
H266        H  0.79118962  0.10133243  0.07231831     0.14300
H267        H  0.85736714  0.03678476  0.27744255     0.32500
H268        H  0.85154806  0.21008312  0.12942451     0.35300
C269        C  0.85303431  0.09063121  0.73001794     0.20800
C270        C  0.83327107  0.08382700  0.78140605    -0.39000
C271        C  0.82199319  0.11686744  0.81194356     0.19800
C272        C  0.82923241  0.15379661  0.79233620     0.22500
C273        C  0.84930644  0.16062035  0.74134376    -0.39500
C274        C  0.86120386  0.12768040  0.71124757     0.21300
N275        N  0.87297407  0.06439969  0.69714477    -0.32800
C276        C  0.89518418  0.08494872  0.65827876    -0.10400
C277        C  0.88806198  0.12447072  0.66536833    -0.29200
N278        N  0.81882018  0.18028451  0.83050865    -0.45800
C279        C  0.80535341  0.16028268  0.87532776    -0.05100
C280        C  0.80680417  0.12052067  0.86519860    -0.22400
H281        H  0.82938321  0.05497673  0.79773289     0.19400
H282        H  0.85751889  0.18947792  0.72755984     0.18200
H283        H  0.90458206  0.14777502  0.64344893     0.14500
H284        H  0.79919624  0.09739449  0.89348663     0.14300
H285        H  0.87600915  0.03472824  0.70440082     0.32500
H286        H  0.82325323  0.21013172  0.82722659     0.35300
C287        C  0.70155517  0.32492499  0.95154002     0.20800
C288        C  0.66652196  0.34963585  0.92412506    -0.39000
C289        C  0.65282793  0.38192297  0.95507230     0.19800
C290        C  0.67291655  0.38880123  0.00893051     0.22500
C291        C  0.70827749  0.36458297  0.03575981    -0.39500
C292        C  0.72154590  0.33241567  0.00515025     0.21300
N293        N  0.71674245  0.29029305  0.93402193    -0.32800
C294        C  0.74621482  0.27553291  0.97713528    -0.10400
C295        C  0.75040087  0.30146497  0.02185828    -0.29200
N296        N  0.64992153  0.41806634  0.03228797    -0.45800
C297        C  0.61457509  0.43015078  0.99357245    -0.05100
C298        C  0.61568061  0.40877599  0.94421035    -0.22400
H299        H  0.64929728  0.34308812  0.88305307     0.19400
H300        H  0.72231287  0.36923512  0.07867722     0.18200
H301        H  0.77023153  0.29776819  0.06227811     0.14500
H302        H  0.59015767  0.41039839  0.90747599     0.14300
H303        H  0.70531405  0.27677587  0.89630575     0.32500
H304        H  0.65604393  0.42775689  0.07349503     0.35300
loop_ 
_geom_bond_atom_site_label_1 
_geom_bond_atom_site_label_2 
_geom_bond_distance 
_geom_bond_site_symmetry_2 
_ccdc_geom_bond_type 
C1            C2   1.408   1_556  A
C1            C6   1.404       .  A
C1          C294   1.488       .  S
C2            C3   1.402       .  A
C2            H7   1.082       .  S
C3            C4   1.405   1_554  A
C3          C261   1.482       .  S
C4            C5   1.407       .  A
C4            H8   1.083       .  S
C5            C6   1.406       .  A
C5          C279   1.483       .  S
C6            H9   1.082       .  S
C10          C11   1.407   1_554  A
C10          C15   1.408       .  A
C10         C243   1.488       .  S
C11          C12   1.402       .  A
C11          H16   1.082       .  S
C12          C13   1.405   1_556  A
C12         C225   1.482       .  S
C13          C14   1.406       .  A
C13          H17   1.084       .  S
C14          C15   1.406       .  A
C14         C204   1.482       .  S
C15          H18   1.082       .  S
O19         Ni25   1.917       .  S
O19          C40   1.267   1_556  A
O20         Ni43   1.913       .  S
O20          C29   1.273   1_556  A
O21         Ni25   1.882       .  S
O21         Ni43   1.897       .  S
O21         Ni37   1.911   1_556  S
O21          H44   0.964   1_556  S
C22         C171   1.474       .  S
C22          O39   1.274       .  A
C22          O31   1.277       .  A
O23         Ni42   1.929       .  S
O23          C29   1.276       .  A
O24         Ni42   1.914       .  S
O24          C26   1.269       .  A
Ni25         O28   1.913       .  S
Ni25         O30   1.897       .  S
C26         C135   1.472       .  S
C26          O36   1.276       .  A
O27         Ni43   1.949       .  S
O27          C33   1.283       .  A
O28          C33   1.275       .  A
C29         C297   1.473   1_554  S
O30          C32   1.268       .  A
O31         Ni42   1.942       .  S
C32         C189   1.475       .  S
C32          O38   1.275       .  A
C33         C150   1.478       .  S
H34          O35   0.967       .  S
O35         Ni43   1.926   1_554  S
O35         Ni37   1.910       .  S
O35         Ni42   1.898       .  S
O36         Ni37   1.946       .  S
Ni37         O41   1.925       .  S
Ni37         O39   1.919       .  S
O38         Ni43   1.943       .  S
C40         C240   1.471       .  S
C40          O41   1.271       .  A
C45          C46   1.405       .  A
C45          C50   1.406       .  A
C45         C117   1.486       .  S
C46          C47   1.406       .  A
C46          H51   1.083       .  S
C47          C48   1.410       .  A
C47         C132   1.480       .  S
C48          C49   1.406       .  A
C48          H52   1.084       .  S
C49          C50   1.403       .  A
C49         C153   1.486       .  S
C50          H53   1.082       .  S
C54          C55   1.405       .  A
C54          C59   1.409       .  A
C54          C96   1.480       .  S
C55          C56   1.402       .  A
C55          H60   1.084       .  S
C56          C57   1.403       .  A
C56         C186   1.474       .  S
C57          C58   1.403       .  A
C57          H61   1.083       .  S
C58          C59   1.403       .  A
C58         C168   1.484       .  S
C59          H62   1.083       .  S
O63         Ni69   1.923       .  S
O63          C84   1.268       .  A
O64         Ni87   1.917   1_565  S
O64          C73   1.266       .  A
O65         Ni69   1.910       .  S
O65         Ni87   1.916   1_455  S
O65         Ni81   1.920   1_455  S
O65          H88   0.961       .  S
C66         C258   1.478       .  S
C66          O83   1.279       .  A
C66          O75   1.276       .  A
O67         Ni86   1.922       .  S
O67          C73   1.267       .  A
O68         Ni86   1.898       .  S
O68          C70   1.265   1_655  A
Ni69         O72   1.927       .  S
Ni69         O74   1.899   1_455  S
C70         C207   1.474       .  S
C70          O80   1.275   1_565  A
O71         Ni87   1.925   1_565  S
O71          C77   1.277   1_655  A
O72          C77   1.277   1_545  A
C73          C99   1.470       .  S
O74          C76   1.265       .  A
O75         Ni86   1.922   1_545  S
C76         C276   1.469       .  S
C76          O82   1.270       .  A
C77         C222   1.477       .  S
H78          O79   0.970       .  S
O79         Ni87   1.917       .  S
O79         Ni81   1.916       .  S
O79         Ni86   1.908   1_545  S
O80         Ni81   1.944   1_455  S
Ni81         O85   1.925   1_655  S
Ni81         O83   1.931       .  S
O82         Ni87   1.934       .  S
C84         C114   1.475       .  S
C84          O85   1.270       .  A
C89          C94   1.383       .  A
C89          C90   1.408       .  A
C89          N95   1.346       .  A
C90          C91   1.407       .  A
C90         H101   1.082       .  S
C91         C100   1.385       .  A
C91          C92   1.385       .  A
C92          C93   1.399       .  A
C92          N98   1.339       .  A
C93          C94   1.397       .  A
C93         H102   1.083       .  S
C94          C97   1.373       .  A
N95          C96   1.359       .  A
N95         H105   1.044       .  S
C96          C97   1.394       .  A
C97         H103   1.082       .  S
N98          C99   1.354       .  A
N98         H106   1.045       .  S
C99         C100   1.398       .  A
C100        H104   1.082       .  S
C107        C112   1.384       .  A
C107        C108   1.408       .  A
C107        N113   1.350       .  A
C108        C109   1.408       .  A
C108        H119   1.082       .  S
C109        C118   1.383       .  A
C109        C110   1.383       .  A
C110        C111   1.399       .  A
C110        N116   1.341       .  A
C111        C112   1.399       .  A
C111        H120   1.083       .  S
C112        C115   1.371       .  A
N113        C114   1.358       .  A
N113        H123   1.044       .  S
C114        C115   1.395       .  A
C115        H121   1.083       .  S
N116        C117   1.356       .  A
N116        H124   1.044       .  S
C117        C118   1.401       .  A
C118        H122   1.082       .  S
C125        C130   1.384       .  A
C125        C126   1.402       .  A
C125        N131   1.343       .  A
C126        C127   1.402       .  A
C126        H137   1.082       .  S
C127        C136   1.375       .  A
C127        C128   1.384       .  A
C128        C129   1.408       .  A
C128        N134   1.348       .  A
C129        C130   1.407       .  A
C129        H138   1.082       .  S
C130        C133   1.383       .  A
N131        C132   1.354       .  A
N131        H141   1.045       .  S
C132        C133   1.399       .  A
C133        H139   1.082       .  S
N134        C135   1.358       .  A
N134        H142   1.045       .  S
C135        C136   1.394       .  A
C136        H140   1.083       .  S
C143        C148   1.384       .  A
C143        C144   1.404       .  A
C143        N149   1.343       .  A
C144        C145   1.403       .  A
C144        H155   1.082       .  S
C145        C154   1.377       .  A
C145        C146   1.383       .  A
C146        C147   1.409       .  A
C146        N152   1.349       .  A
C147        C148   1.409       .  A
C147        H156   1.082       .  S
C148        C151   1.385       .  A
N149        C150   1.357       .  A
N149        H159   1.045       .  S
C150        C151   1.399       .  A
C151        H157   1.082       .  S
N152        C153   1.358       .  A
N152        H160   1.044       .  S
C153        C154   1.397       .  A
C154        H158   1.082       .  S
C161        C166   1.384       .  A
C161        C162   1.400       .  A
C161        N167   1.341       .  A
C162        C163   1.399       .  A
C162        H173   1.083       .  S
C163        C172   1.373       .  A
C163        C164   1.384       .  A
C164        C165   1.409       .  A
C164        N170   1.349       .  A
C165        C166   1.409       .  A
C165        H174   1.082       .  S
C166        C169   1.384       .  A
N167        C168   1.355       .  A
N167        H177   1.045       .  S
C168        C169   1.401       .  A
C169        H175   1.082       .  S
N170        C171   1.358       .  A
N170        H178   1.044       .  S
C171        C172   1.394       .  A
C172        H176   1.083       .  S
C179        C184   1.385       .  A
C179        C180   1.395       .  A
C179        N185   1.340       .  A
C180        C181   1.396       .  A
C180        H191   1.083       .  S
C181        C190   1.364       .  A
C181        C182   1.384       .  A
C182        C183   1.409       .  A
C182        N188   1.352       .  A
C183        C184   1.411       .  A
C183        H192   1.082       .  S
C184        C187   1.383       .  A
N185        C186   1.352       .  A
N185        H195   1.045       .  S
C186        C187   1.398       .  A
C187        H193   1.082       .  S
N188        C189   1.359       .  A
N188        H196   1.044       .  S
C189        C190   1.393       .  A
C190        H194   1.083       .  S
C197        C202   1.384       .  A
C197        C198   1.405       .  A
C197        N203   1.345       .  A
C198        C199   1.405       .  A
C198        H209   1.082       .  S
C199        C208   1.383       .  A
C199        C200   1.384       .  A
C200        C201   1.406       .  A
C200        N206   1.344       .  A
C201        C202   1.404       .  A
C201        H210   1.082       .  S
C202        C205   1.381       .  A
N203        C204   1.356       .  A
N203        H213   1.045       .  S
C204        C205   1.397       .  A
C205        H211   1.082       .  S
N206        C207   1.357       .  A
N206        H214   1.045       .  S
C207        C208   1.395       .  A
C208        H212   1.082   1_565  S
C215        C220   1.384       .  A
C215        C216   1.408       .  A
C215        N221   1.349       .  A
C216        C217   1.408       .  A
C216        H227   1.082       .  S
C217        C226   1.381       .  A
C217        C218   1.384       .  A
C218        C219   1.402       .  A
C218        N224   1.344       .  A
C219        C220   1.402       .  A
C219        H228   1.082       .  S
C220        C223   1.375       .  A
N221        C222   1.358       .  A
N221        H231   1.045       .  S
C222        C223   1.395       .  A
C223        H229   1.082   1_565  S
N224        C225   1.355       .  A
N224        H232   1.045       .  S
C225        C226   1.399       .  A
C226        H230   1.082       .  S
C233        C238   1.384       .  A
C233        C234   1.407       .  A
C233        N239   1.348       .  A
C234        C235   1.407       .  A
C234        H245   1.082       .  S
C235        C244   1.381       .  A
C235        C236   1.383       .  A
C236        C237   1.400   1_554  A
C236        N242   1.341   1_554  A
C237        C238   1.399   1_556  A
C237        H246   1.083       .  S
C238        C241   1.371   1_554  A
N239        C240   1.357       .  A
N239        H249   1.044       .  S
C240        C241   1.394   1_554  A
C241        H247   1.083       .  S
N242        C243   1.358   1_556  A
N242        H250   1.044       .  S
C243        C244   1.401       .  A
C244        H248   1.082       .  S
C251        C256   1.384       .  A
C251        C252   1.403       .  A
C251        N257   1.341       .  A
C252        C253   1.401       .  A
C252        H263   1.082       .  S
C253        C262   1.379       .  A
C253        C254   1.384       .  A
C254        C255   1.408       .  A
C254        N260   1.345       .  A
C255        C256   1.407       .  A
C255        H264   1.082       .  S
C256        C259   1.386       .  A
N257        C258   1.356       .  A
N257        H267   1.045       .  S
C258        C259   1.399       .  A
C259        H265   1.082       .  S
N260        C261   1.358       .  A
N260        H268   1.045       .  S
C261        C262   1.395       .  A
C262        H266   1.082       .  S
C269        C274   1.385       .  A
C269        C270   1.406       .  A
C269        N275   1.346       .  A
C270        C271   1.405       .  A
C270        H281   1.082       .  S
C271        C280   1.381       .  A
C271        C272   1.383       .  A
C272        C273   1.402       .  A
C272        N278   1.342       .  A
C273        C274   1.401       .  A
C273        H282   1.083       .  S
C274        C277   1.376       .  A
N275        C276   1.356       .  A
N275        H285   1.045       .  S
C276        C277   1.394       .  A
C277        H283   1.083       .  S
N278        C279   1.357       .  A
N278        H286   1.044       .  S
C279        C280   1.399       .  A
C280        H284   1.082       .  S
C287        C292   1.382   1_556  A
C287        C288   1.410       .  A
C287        N293   1.347       .  A
C288        C289   1.408       .  A
C288        H299   1.082       .  S
C289        C298   1.387       .  A
C289        C290   1.385   1_556  A
C290        C291   1.399       .  A
C290        N296   1.338       .  A
C291        C292   1.397       .  A
C291        H300   1.083       .  S
C292        C295   1.373       .  A
N293        C294   1.361       .  A
N293        H303   1.044       .  S
C294        C295   1.396   1_556  A
C295        H301   1.082       .  S
N296        C297   1.354   1_554  A
N296        H304   1.045       .  S
C297        C298   1.398       .  A
C298        H302   1.082       .  S
