geometry optimzed in LAMMPS
_audit_creation_date              2020-11-30 
_audit_creation_method            'lammps2cif' 
_symmetry_space_group_name_H-M    'P1' 
_symmetry_Int_Tables_number       1 
_symmetry_cell_setting            triclinic 
loop_ 
_symmetry_equiv_pos_as_xyz 
  x,y,z 
_cell_length_a                    27.01683682 
_cell_length_b                    27.097949885719277 
_cell_length_c                    24.690407624068524 
_cell_angle_alpha                 89.91084327645777 
_cell_angle_beta                  89.89171938329031 
_cell_angle_gamma                 89.40198447102503 
loop_ 
_atom_site_label 
_atom_site_type_symbol 
_atom_site_fract_x 
_atom_site_fract_y 
_atom_site_fract_z 
_atom_site_charge 
N1          N  0.88545735  0.02943228  0.94417698    -0.05700
N2          N  0.85552036  0.04714538  0.90654316    -0.57800
N3          N  0.88835049  0.97929831  0.06811415    -0.05400
N4          N  0.86183470  0.96145979  0.10858299    -0.60000
N5          N  0.88755536  0.02788932  0.06887299    -0.05000
N6          N  0.86014217  0.04404618  0.10965898    -0.57800
N7          N  0.88623892  0.98090249  0.94315866    -0.04700
N8          N  0.85649847  0.96455982  0.90489521    -0.60300
C9          C  0.83786521  0.00633787  0.88226843     0.96500
C10         C  0.84455669  0.00225369  0.13422624     0.96200
N11         N  0.02034127  0.89786543  0.06582313    -0.05900
N12         N  0.03747360  0.86717062  0.10321073    -0.58400
N13         N  0.97149624  0.89876968  0.94089068    -0.04000
N14         N  0.95618112  0.86962512  0.90143961    -0.59700
N15         N  0.02017658  0.89952569  0.94203052    -0.05900
N16         N  0.03896605  0.87143312  0.90354593    -0.58700
N17         N  0.97163080  0.89764241  0.06534806    -0.03700
N18         N  0.95460357  0.86742644  0.10271491    -0.59800
Mn19       Mn  0.92829517  0.93813311  0.00412638     1.18400
C20         C  0.99591936  0.84878023  0.12603296     0.98500
C21         C  0.99888351  0.85314732  0.87841785     0.99200
N22         N  0.96871057  0.11223910  0.06622746    -0.06000
N23         N  0.95164919  0.14269876  0.10364601    -0.62300
N24         N  0.01495858  0.11178947  0.94089267    -0.04800
N25         N  0.03079554  0.14020370  0.90115173    -0.62900
N26         N  0.96627041  0.11136491  0.94201310    -0.05500
N27         N  0.94794726  0.13926483  0.90282871    -0.62500
N28         N  0.01739947  0.11311692  0.06485439    -0.04400
N29         N  0.03446125  0.14419713  0.10134789    -0.63200
Mn30       Mn  0.92591417  0.07117494  0.00560132     1.10700
C31         C  0.99299463  0.16212170  0.12536284     0.99800
C32         C  0.98862573  0.15686017  0.87766324     0.99800
N33         N  0.09981352  0.98143012  0.94075084    -0.05500
N34         N  0.12640128  0.96383747  0.90014843    -0.60800
N35         N  0.10144182  0.03099044  0.06431062    -0.04800
N36         N  0.13196147  0.04854137  0.10116793    -0.57600
N37         N  0.10202931  0.98239897  0.06514755    -0.06100
N38         N  0.13315348  0.96595700  0.10238468    -0.60400
N39         N  0.09862888  0.02993524  0.93950285    -0.05100
N40         N  0.12446506  0.04643129  0.89790281    -0.57600
Mn41       Mn  0.06160718  0.93943830  0.00392239     1.20200
Mn42       Mn  0.05919290  0.07245899  0.00240656     1.10100
Cl43       Cl  0.99372364  0.00531113  0.00431844    -0.85600
C44         C  0.14141270  0.00474540  0.87374892     0.96800
C45         C  0.15131685  0.00758311  0.12472878     0.96600
N46         N  0.01175985  0.42868654  0.50330569    -0.36200
N47         N  0.00906686  0.50571408  0.42052931    -0.56800
N48         N  0.00476437  0.58072994  0.50588873    -0.36200
N49         N  0.00795097  0.50370904  0.58877411    -0.56800
C50         C  0.00590343  0.40048560  0.45860106     0.27400
C51         C  0.00505885  0.39938376  0.54707005     0.27400
C52         C  0.00903951  0.61055247  0.46216950     0.27400
C53         C  0.00695568  0.60940369  0.55062402     0.27400
C54         C  0.01171661  0.46619978  0.38733837     0.36000
C55         C  0.01018852  0.54621910  0.38866118     0.36000
C56         C  0.01084040  0.46320964  0.62055485     0.36000
C57         C  0.00789196  0.54325658  0.62202504     0.36000
C58         C  0.99619555  0.35234858  0.47420401    -0.21500
C59         C  0.99568089  0.35163407  0.52984082    -0.21500
C60         C  0.01325465  0.65905090  0.47943297    -0.21500
C61         C  0.01176568  0.65834510  0.53504758    -0.21500
C62         C  0.01408939  0.48166029  0.33387184    -0.22500
C63         C  0.01287598  0.53223423  0.33467698    -0.22500
C64         C  0.01285026  0.47717174  0.67455844    -0.22500
C65         C  0.01084567  0.52779879  0.67547431    -0.22500
C66         C  0.01038851  0.41630249  0.40407754    -0.17900
C67         C  0.00878711  0.41380065  0.60212981    -0.17900
C68         C  0.00508377  0.59317383  0.60522173    -0.17900
C69         C  0.00985732  0.59571891  0.40706502    -0.17900
H70         H  0.99021302  0.32081138  0.44828122     0.15000
H71         H  0.98935028  0.31934292  0.55462021     0.15000
H72         H  0.01747219  0.69169318  0.45460794     0.15000
H73         H  0.01469241  0.69031687  0.56102031     0.15000
H74         H  0.01602289  0.45893012  0.29790872     0.13300
H75         H  0.01401647  0.55590435  0.29937289     0.13300
H76         H  0.01461581  0.45342637  0.70979827     0.13300
H77         H  0.01148270  0.55057509  0.71143418     0.13300
H78         H  0.02212667  0.46525488  0.50399833     0.26600
H79         H  0.99966450  0.54311743  0.50518666     0.26600
N80         N  0.56975221  0.97396930  0.51209446    -0.36200
N81         N  0.49964188  0.97590041  0.42177145    -0.56800
N82         N  0.41778102  0.98253889  0.49932587    -0.36200
N83         N  0.48799755  0.98041315  0.58967535    -0.56800
C84         C  0.60180107  0.97783400  0.47006778     0.27400
C85         C  0.59541702  0.98292719  0.55808779     0.27400
C86         C  0.39174221  0.97767826  0.45282162     0.27400
C87         C  0.38579980  0.97662723  0.54113581     0.27400
C88         C  0.54198872  0.97225568  0.39268943     0.36000
C89         C  0.46189505  0.97741409  0.38587002     0.36000
C90         C  0.52571613  0.98138642  0.62545340     0.36000
C91         C  0.44571188  0.98031673  0.61887693     0.36000
C92         C  0.64856250  0.98836256  0.48974843    -0.21500
C93         C  0.64455835  0.99158888  0.54504538    -0.21500
C94         C  0.34234220  0.96984098  0.46534834    -0.21500
C95         C  0.33864707  0.96898864  0.52083989    -0.21500
C96         C  0.53101801  0.97122218  0.33786083    -0.22500
C97         C  0.48043345  0.97482784  0.33354476    -0.22500
C98         C  0.50729880  0.98222237  0.67789734    -0.22500
C99         C  0.45665785  0.98157745  0.67375114    -0.22500
C100        C  0.59058560  0.97236338  0.41431878    -0.17900
C101        C  0.57652461  0.98271091  0.61174719    -0.17900
C102        C  0.39733639  0.97793745  0.59718343    -0.17900
C103        C  0.41084663  0.97947740  0.39922594    -0.17900
H104        H  0.68217071  0.99375214  0.46665834     0.15000
H105        H  0.67461125  0.99971427  0.57241875     0.15000
H106        H  0.31204927  0.96441092  0.43743681     0.15000
H107        H  0.30497211  0.96294106  0.54361513     0.15000
H108        H  0.55678656  0.96882776  0.30432839     0.13300
H109        H  0.45968961  0.97507711  0.29608700     0.13300
H110        H  0.52812443  0.98342684  0.71527252     0.13300
H111        H  0.43089932  0.98184206  0.70738353     0.13300
H112        H  0.53297455  0.96412430  0.50956753     0.26600
H113        H  0.45495678  0.99055154  0.50227170     0.26600
C114        C  0.31443826  0.96150253  0.28667727     0.16300
C115        C  0.28025972  0.94286822  0.24947819    -0.32700
C116        C  0.24954703  0.97678545  0.22228867     0.20700
C117        C  0.25298100  0.02714370  0.23121829     0.02900
C118        C  0.28724405  0.04583914  0.26840115    -0.22400
C119        C  0.31764965  0.01184146  0.29603400     0.12100
S120        S  0.35384639  0.92619685  0.32494635    -0.06100
C121        C  0.37457978  0.97975239  0.35416046    -0.09500
C122        C  0.35218154  0.02254336  0.33489402    -0.26200
S123        S  0.21243349  0.06206687  0.19385684    -0.03400
C124        C  0.19040976  0.00818539  0.16628396    -0.16800
C125        C  0.21363412  0.96569593  0.18520104    -0.14800
H126        H  0.27739297  0.90357216  0.24241640     0.20600
H127        H  0.28979542  0.08510604  0.27580965     0.16600
H128        H  0.36017378  0.05931718  0.34932818     0.19100
H129        H  0.20493641  0.92863357  0.17221398     0.12500
C130        C  0.29431648  0.95660781  0.70171151     0.16300
C131        C  0.26141631  0.93788051  0.74042939    -0.32700
C132        C  0.23037911  0.97172062  0.76735506     0.20700
C133        C  0.23174748  0.02184412  0.75599845     0.02900
C134        C  0.26418648  0.04043551  0.71694832    -0.22400
C135        C  0.29543594  0.00676436  0.69036862     0.12100
S136        S  0.33663527  0.92221810  0.66618019    -0.06100
C137        C  0.35571661  0.97613561  0.63604547    -0.09500
C138        C  0.33055212  0.01814205  0.65254790    -0.26200
S139        S  0.19304884  0.05722134  0.79481955    -0.03400
C140        C  0.17508367  0.00402454  0.82706481    -0.16800
C141        C  0.19750993  0.96120196  0.80794308    -0.14800
H142        H  0.26070175  0.89885400  0.74988524     0.20600
H143        H  0.26569733  0.07960021  0.70840341     0.16600
H144        H  0.33824953  0.05507444  0.63823678     0.19100
H145        H  0.19129236  0.92458592  0.82406791     0.12500
C146        C  0.74938506  0.01940887  0.24846047     0.16300
C147        C  0.71279195  0.03759992  0.28356416    -0.32700
C148        C  0.68802577  0.00364411  0.31640928     0.20700
C149        C  0.69976571  0.95368925  0.31538733     0.02900
C150        C  0.73696695  0.93546167  0.28063535    -0.22400
C151        C  0.76108007  0.96947228  0.24678247     0.12100
S152        S  0.78113542  0.05463468  0.20312636    -0.06100
C153        C  0.81013876  0.00163272  0.18069419    -0.09500
C154        C  0.79614759  0.95900461  0.20786381    -0.26200
S155        S  0.66394261  0.91857732  0.35748670    -0.03400
C156        C  0.63265917  0.97181286  0.37562773    -0.16800
C157        C  0.64967718  0.01423985  0.35097042    -0.14800
H158        H  0.70312194  0.07647668  0.28422469     0.20600
H159        H  0.74581525  0.89642172  0.27904924     0.16600
H160        H  0.81004384  0.92229755  0.19881505     0.19100
H161        H  0.63422978  0.05078139  0.35753775     0.12500
C162        C  0.73711592  0.02788014  0.77531702     0.16300
C163        C  0.70199714  0.04740413  0.73917065    -0.32700
C164        C  0.67093901  0.01408086  0.71260917     0.20700
C165        C  0.67472105  0.96361480  0.72162572     0.02900
C166        C  0.70980774  0.94417287  0.75765451    -0.22400
C167        C  0.74084677  0.97740829  0.78411725     0.12100
S168        S  0.77771842  0.06192720  0.81232074    -0.06100
C169        C  0.79978814  0.00751299  0.83984656    -0.09500
C170        C  0.77690928  0.96548748  0.82090302    -0.26200
S171        S  0.63476140  0.92906880  0.68454740    -0.03400
C172        C  0.61288788  0.98306198  0.65642056    -0.16800
C173        C  0.63517794  0.02555014  0.67517921    -0.14800
H174        H  0.69905404  0.08676511  0.73203047     0.20600
H175        H  0.71290246  0.90479551  0.76461640     0.16600
H176        H  0.78554934  0.92825932  0.83411458     0.19100
H177        H  0.62660270  0.06248109  0.66097455     0.12500
C178        C  0.03450641  0.31926425  0.29373141     0.16300
C179        C  0.05488637  0.28631677  0.25577519    -0.32700
C180        C  0.02203147  0.25707908  0.22612501     0.20700
C181        C  0.97123832  0.26071746  0.23379707     0.04000
C182        C  0.95092158  0.29380461  0.27138664    -0.22400
C183        C  0.98365664  0.32281247  0.30113035     0.12100
S184        S  0.06783911  0.35743875  0.33444699    -0.06100
C185        C  0.01262721  0.37805710  0.36148872    -0.09500
C186        C  0.97084970  0.35667542  0.33989769    -0.26200
S187        S  0.93746787  0.22197522  0.19452980    -0.03400
C188        C  0.99222615  0.20037785  0.16742882    -0.16800
C189        C  0.03437493  0.22242065  0.18781616    -0.14800
H190        H  0.09453804  0.28338228  0.24987929     0.20600
H191        H  0.91127966  0.29660033  0.27742202     0.16600
H192        H  0.93326174  0.36539659  0.35215088     0.19100
H193        H  0.07187642  0.21355628  0.17534466     0.12500
C194        C  0.96668700  0.25114791  0.76420329     0.16300
C195        C  0.94698555  0.28355985  0.72537027    -0.32700
C196        C  0.97983448  0.31542311  0.69910422     0.20700
C197        C  0.03006645  0.31497076  0.71081866     0.02900
C198        C  0.04971545  0.28258625  0.74956769    -0.22400
C199        C  0.01690680  0.25077600  0.77582055     0.12100
S200        S  0.93300455  0.21038556  0.80161580    -0.06100
C201        C  0.98721117  0.19283584  0.83316386    -0.09500
C202        C  0.02893641  0.21718345  0.81516360    -0.26200
S203        S  0.06389158  0.35635427  0.67461999    -0.03400
C204        C  0.00980068  0.37442476  0.64350000    -0.16800
C205        C  0.96790107  0.34976025  0.66043530    -0.14800
H206        H  0.90779173  0.28410633  0.71625118     0.20600
H207        H  0.08885427  0.28230215  0.75897485     0.16600
H208        H  0.06595476  0.21136400  0.83085313     0.19100
H209        H  0.93092773  0.35661680  0.64511349     0.12500
C210        C  0.03486768  0.69032932  0.29496196     0.16300
C211        C  0.05507979  0.71951905  0.25372825    -0.32700
C212        C  0.02323764  0.75261709  0.22692510     0.20700
C213        C  0.97344767  0.75621486  0.24040529     0.02900
C214        C  0.95323386  0.72701130  0.28151816    -0.22400
C215        C  0.98506492  0.69410706  0.30840621     0.12100
S216        S  0.06722317  0.64779791  0.33208870    -0.06100
C217        C  0.01293291  0.63483324  0.36550850    -0.09500
C218        C  0.97224244  0.66232257  0.34907978    -0.26200
S219        S  0.94082139  0.79829322  0.20318624    -0.03400
C220        C  0.99484336  0.81170124  0.16943510    -0.16800
C221        C  0.03582558  0.78453442  0.18608607    -0.14800
H222        H  0.09389421  0.71658920  0.24306021     0.20600
H223        H  0.91437361  0.72979667  0.29204965     0.16600
H224        H  0.93527916  0.65864697  0.36555102     0.19100
H225        H  0.07264292  0.78780487  0.16912100     0.12500
C226        C  0.97221776  0.69415902  0.70827281     0.16300
C227        C  0.94859016  0.72910253  0.74159380    -0.32700
C228        C  0.97857564  0.75931100  0.77357174     0.20700
C229        C  0.02978692  0.75508042  0.77197174     0.02900
C230        C  0.05337937  0.72026313  0.73866894    -0.22400
C231        C  0.02344488  0.68984053  0.70710679     0.12100
S232        S  0.94253340  0.65418039  0.66636226    -0.06100
C233        C  0.99968390  0.63143914  0.64748405    -0.09500
C234        C  0.03949591  0.65372369  0.67227725    -0.26200
S235        S  0.05976745  0.79425299  0.81419452    -0.03400
C236        C  0.00281584  0.81633131  0.83493093    -0.16800
C237        C  0.96275846  0.79462197  0.80974267    -0.14800
H238        H  0.90862310  0.73238670  0.74276386     0.20600
H239        H  0.09334483  0.71682328  0.73769309     0.16600
H240        H  0.07794190  0.64441022  0.66457245     0.19100
H241        H  0.92433342  0.80348754  0.81815063     0.12500
loop_ 
_geom_bond_atom_site_label_1 
_geom_bond_atom_site_label_2 
_geom_bond_distance 
_geom_bond_site_symmetry_2 
_ccdc_geom_bond_type 
N1            N2   1.320       .  A
N1            N7   1.315   1_545  A
N1          Mn30   2.194   1_556  S
N2            C9   1.350       .  A
N3            N5   1.317   1_565  A
N3            N4   1.322       .  A
N3          Mn19   2.209       .  S
N4           C10   1.353   1_565  A
N5            N6   1.321       .  A
N5          Mn30   2.214       .  S
N6           C10   1.354       .  A
N7            N8   1.321       .  A
N7          Mn19   2.208   1_556  S
N8            C9   1.354   1_565  A
C9          C169   1.470       .  S
C10         C153   1.476       .  S
N11          N17   1.316   1_455  A
N11          N12   1.323       .  A
N11         Mn41   2.205       .  S
N12          C20   1.354   1_455  A
N13          N14   1.325       .  A
N13          N15   1.316   1_655  A
N13         Mn19   2.216   1_556  S
N14          C21   1.357       .  A
N15          N16   1.316       .  A
N15         Mn41   2.190   1_556  S
N16          C21   1.348   1_455  A
N17          N18   1.318       .  A
N17         Mn19   2.199       .  S
N18          C20   1.350       .  A
Mn19        Cl43   2.551   1_565  S
C20         C220   1.468       .  S
C21         C236   1.470   1_655  S
N22          N23   1.319       .  A
N22          N28   1.316   1_655  A
N22         Mn30   2.203       .  S
N23          C31   1.352       .  A
N24          N26   1.316   1_455  A
N24          N25   1.320       .  A
N24         Mn42   2.201   1_556  S
N25          C32   1.352   1_455  A
N26          N27   1.321       .  A
N26         Mn30   2.203   1_556  S
N27          C32   1.352       .  A
N28          N29   1.321       .  A
N28         Mn42   2.200       .  S
N29          C31   1.353   1_455  A
Mn30        Cl43   2.544       .  S
C31         C188   1.469       .  S
C32         C201   1.468       .  S
N33          N34   1.319       .  A
N33          N39   1.315   1_565  A
N33         Mn41   2.192   1_556  S
N34          C44   1.351   1_565  A
N35          N36   1.322       .  A
N35          N37   1.317   1_545  A
N35         Mn42   2.208       .  S
N36          C45   1.353       .  A
N37          N38   1.321       .  A
N37         Mn41   2.207       .  S
N38          C45   1.354   1_565  A
N39          N40   1.321       .  A
N39         Mn42   2.202   1_556  S
N40          C44   1.353       .  A
Mn41        Cl43   2.546   1_465  S
Mn42        Cl43   2.551   1_455  S
C44         C140   1.467       .  S
C45         C124   1.474       .  S
N46          C51   1.353       .  A
N46          C50   1.354       .  A
N46          H78   1.033       .  S
N47          C54   1.351       .  A
N47          C55   1.350       .  A
N48          C53   1.353       .  A
N48          C52   1.353       .  A
N48          H79   1.030   1_455  S
N49          C56   1.350       .  A
N49          C57   1.351       .  A
C50          C58   1.387   1_455  A
C50          C66   1.418       .  A
C51          C67   1.419       .  A
C51          C59   1.389   1_455  A
C52          C60   1.388       .  A
C52          C69   1.419       .  A
C53          C68   1.418       .  A
C53          C61   1.388       .  A
C54          C66   1.414       .  A
C54          C62   1.386       .  A
C55          C69   1.417       .  A
C55          C63   1.388       .  A
C56          C64   1.388       .  A
C56          C67   1.416       .  A
C57          C65   1.386       .  A
C57          C68   1.416       .  A
C58          C59   1.374       .  A
C58          H70   1.082       .  S
C59          H71   1.082       .  S
C60          C61   1.374       .  A
C60          H72   1.082       .  S
C61          H73   1.082       .  S
C62          C63   1.371       .  A
C62          H74   1.082       .  S
C63          H75   1.082       .  S
C64          C65   1.373       .  A
C64          H76   1.082       .  S
C65          H77   1.082       .  S
C66         C185   1.478       .  S
C67         C204   1.476       .  S
C68         C233   1.478   1_455  S
C69         C217   1.477       .  S
N80          C85   1.355       .  A
N80          C84   1.355       .  A
N80         H112   1.034       .  S
N81          C88   1.352       .  A
N81          C89   1.353       .  A
N82          C87   1.355       .  A
N82          C86   1.355       .  A
N82         H113   1.033       .  S
N83          C90   1.350       .  A
N83          C91   1.350       .  A
C84          C92   1.387       .  A
C84         C100   1.418       .  A
C85         C101   1.419       .  A
C85          C93   1.388       .  A
C86          C94   1.388       .  A
C86         C103   1.420       .  A
C87         C102   1.420       .  A
C87          C95   1.387       .  A
C88         C100   1.418       .  A
C88          C96   1.387       .  A
C89         C103   1.418       .  A
C89          C97   1.386       .  A
C90          C98   1.386       .  A
C90         C101   1.414       .  A
C91          C99   1.388       .  A
C91         C102   1.416       .  A
C92          C93   1.372       .  A
C92         H104   1.082       .  S
C93         H105   1.082       .  S
C94          C95   1.374       .  A
C94         H106   1.082       .  S
C95         H107   1.082       .  S
C96          C97   1.373       .  A
C96         H108   1.082       .  S
C97         H109   1.082       .  S
C98          C99   1.372       .  A
C98         H110   1.082       .  S
C99         H111   1.082       .  S
C100        C156   1.483       .  S
C101        C172   1.479       .  S
C102        C137   1.478       .  S
C103        C121   1.484       .  S
C114        C119   1.387   1_565  A
C114        C115   1.402       .  A
C114        S120   1.709       .  A
C115        C116   1.403       .  A
C115        H126   1.083       .  S
C116        C125   1.371       .  A
C116        C117   1.387   1_565  A
C117        C118   1.404       .  A
C117        S123   1.711       .  A
C118        C119   1.405       .  A
C118        H127   1.083       .  S
C119        C122   1.373       .  A
S120        C121   1.721       .  A
C121        C122   1.386   1_565  A
C122        H128   1.083       .  S
S123        C124   1.724       .  A
C124        C125   1.386   1_545  A
C125        H129   1.083       .  S
C130        C135   1.388   1_565  A
C130        C131   1.402       .  A
C130        S136   1.709       .  A
C131        C132   1.403       .  A
C131        H142   1.083       .  S
C132        C141   1.369       .  A
C132        C133   1.387   1_565  A
C133        C134   1.399       .  A
C133        S139   1.706       .  A
C134        C135   1.400       .  A
C134        H143   1.083       .  S
C135        C138   1.367       .  A
S136        C137   1.722       .  A
C137        C138   1.381   1_565  A
C138        H144   1.083       .  S
S139        C140   1.720       .  A
C140        C141   1.387   1_545  A
C141        H145   1.083       .  S
C146        C151   1.387   1_545  A
C146        C147   1.400       .  A
C146        S152   1.706       .  A
C147        C148   1.400       .  A
C147        H158   1.083       .  S
C148        C157   1.369       .  A
C148        C149   1.387   1_545  A
C149        C150   1.406       .  A
C149        S155   1.713       .  A
C150        C151   1.407       .  A
C150        H159   1.083       .  S
C151        C154   1.376       .  A
S152        C153   1.721       .  A
C153        C154   1.390   1_545  A
C154        H160   1.083       .  S
S155        C156   1.724       .  A
C156        C157   1.383   1_565  A
C157        H161   1.083       .  S
C162        C167   1.387   1_545  A
C162        C163   1.403       .  A
C162        S168   1.708       .  A
C163        C164   1.403       .  A
C163        H174   1.083       .  S
C164        C173   1.371       .  A
C164        C165   1.388   1_545  A
C165        C166   1.400       .  A
C165        S171   1.705       .  A
C166        C167   1.400       .  A
C166        H175   1.083       .  S
C167        C170   1.369       .  A
S168        C169   1.724       .  A
C169        C170   1.384   1_545  A
C170        H176   1.083       .  S
S171        C172   1.718       .  A
C172        C173   1.386   1_565  A
C173        H177   1.083       .  S
C178        C183   1.388   1_455  A
C178        C179   1.403       .  A
C178        S184   1.708       .  A
C179        C180   1.404       .  A
C179        H190   1.083       .  S
C180        C189   1.372       .  A
C180        C181   1.387   1_455  A
C181        C182   1.399       .  A
C181        S187   1.703       .  A
C182        C183   1.399       .  A
C182        H191   1.083       .  S
C183        C186   1.368       .  A
S184        C185   1.721       .  A
C185        C186   1.382   1_455  A
C186        H192   1.083       .  S
S187        C188   1.720       .  A
C188        C189   1.387   1_655  A
C189        H193   1.083       .  S
C194        C199   1.387   1_655  A
C194        C195   1.401       .  A
C194        S200   1.708       .  A
C195        C196   1.402       .  A
C195        H206   1.083       .  S
C196        C205   1.369       .  A
C196        C197   1.388   1_655  A
C197        C198   1.399       .  A
C197        S203   1.705       .  A
C198        C199   1.400       .  A
C198        H207   1.083       .  S
C199        C202   1.368       .  A
S200        C201   1.722       .  A
C201        C202   1.384   1_655  A
C202        H208   1.083       .  S
S203        C204   1.719       .  A
C204        C205   1.384   1_455  A
C205        H209   1.083       .  S
C210        C215   1.388   1_455  A
C210        C211   1.402       .  A
C210        S216   1.706       .  A
C211        C212   1.402       .  A
C211        H222   1.083       .  S
C212        C221   1.372       .  A
C212        C213   1.388   1_455  A
C213        C214   1.400       .  A
C213        S219   1.703       .  A
C214        C215   1.400       .  A
C214        H223   1.083       .  S
C215        C218   1.368       .  A
S216        C217   1.721       .  A
C217        C218   1.383   1_455  A
C218        H224   1.083       .  S
S219        C220   1.721       .  A
C220        C221   1.386   1_655  A
C221        H225   1.083       .  S
C226        C231   1.388   1_655  A
C226        C227   1.403       .  A
C226        S232   1.707       .  A
C227        C228   1.403       .  A
C227        H238   1.083       .  S
C228        C237   1.374       .  A
C228        C229   1.388   1_655  A
C229        C230   1.400       .  A
C229        S235   1.701       .  A
C230        C231   1.400       .  A
C230        H239   1.083       .  S
C231        C234   1.370       .  A
S232        C233   1.720       .  A
C233        C234   1.383   1_655  A
C234        H240   1.083       .  S
S235        C236   1.722       .  A
C236        C237   1.386   1_455  A
C237        H241   1.083       .  S
