geometry optimzed in LAMMPS
_audit_creation_date              2020-11-30 
_audit_creation_method            'lammps2cif' 
_symmetry_space_group_name_H-M    'P1' 
_symmetry_Int_Tables_number       1 
_symmetry_cell_setting            triclinic 
loop_ 
_symmetry_equiv_pos_as_xyz 
  x,y,z 
_cell_length_a                    29.65323925 
_cell_length_b                    29.50207310059882 
_cell_length_c                    25.305236401788434 
_cell_angle_alpha                 89.21519622431416 
_cell_angle_beta                  89.26547108292898 
_cell_angle_gamma                 80.302554714918 
loop_ 
_atom_site_label 
_atom_site_type_symbol 
_atom_site_fract_x 
_atom_site_fract_y 
_atom_site_fract_z 
_atom_site_charge 
O1          O  0.96304118  0.97847504  0.88357232    -0.80200
O2          O  0.99770518  0.06592371  0.07979034    -0.80300
O3          O  0.91545929  0.02101608  0.04953774    -0.80300
O4          O  0.99038469  0.08082185  0.95748451    -0.80200
O5          O  0.96033512  0.99152416  0.11210164    -0.80300
O6          O  0.02215878  0.03809709  0.89145817    -0.80300
O7          O  0.04829117  0.09888784  0.03489156    -0.80200
O8          O  0.91549215  0.01439684  0.94282012    -0.80300
C9          C  0.92430822  0.00207089  0.89578030     1.09400
C10         C  0.01835335  0.10082803  0.07136110     1.09300
C11         C  0.92151451  0.01192764  0.09786108     1.09500
C12         C  0.00025873  0.07615861  0.90868517     1.09300
O13         O  0.08794609  0.96671520  0.94530004    -0.80300
O14         O  0.03100164  0.92690869  0.06708128    -0.80300
O15         O  0.95090036  0.91709538  0.94975782    -0.80300
O16         O  0.08322599  0.01053093  0.05971346    -0.80200
O17         O  0.04738069  0.99494104  0.13306917    -0.80300
O18         O  0.02551511  0.90866587  0.94027228    -0.80300
O19         O  0.08470378  0.03989488  0.95705619    -0.80200
O20         O  0.95780836  0.92277180  0.05603735    -0.80300
Co21       Co  0.02434840  0.97330715  0.91990479     1.51500
Co22       Co  0.01662180  0.99445525  0.06854973     1.51700
Co23       Co  0.93793149  0.97110427  0.99954736     1.51600
Co24       Co  0.03191487  0.04439039  0.00853505     1.51500
O25         O  0.99950601  0.99185120  0.99280437    -1.42200
C26         C  0.10688228  0.00178756  0.94167928     1.09400
C27         C  0.99769425  0.90517969  0.07237816     1.09500
C28         C  0.98876489  0.89294583  0.93573085     1.09400
C29         C  0.08397136  0.00081435  0.10994575     1.09400
N30         N  0.00284139  0.42890139  0.50070938    -0.36700
N31         N  0.00405697  0.49635989  0.58314873    -0.57300
N32         N  0.01234724  0.56636590  0.50262256    -0.36700
N33         N  0.00443691  0.49984343  0.42018716    -0.57300
C34         C  0.99154719  0.40508554  0.54358216     0.26900
C35         C  0.99136032  0.40705229  0.45742686     0.26900
C36         C  0.00333846  0.59283621  0.54606387     0.26900
C37         C  0.00448002  0.59447307  0.45976390     0.26900
C38         C  0.00917881  0.45776796  0.61349836     0.35500
C39         C  0.01291185  0.53045929  0.61451525     0.35500
C40         C  0.01024664  0.46235330  0.38904253     0.35500
C41         C  0.01555339  0.53464116  0.39012465     0.35500
C42         C  0.97278249  0.36764545  0.52733045    -0.22000
C43         C  0.97260857  0.36892598  0.47299528    -0.22000
C44         C  0.99014828  0.63838365  0.53057145    -0.22000
C45         C  0.99085840  0.63941223  0.47620260    -0.22000
C46         C  0.02128438  0.46739023  0.66432474    -0.23100
C47         C  0.02359454  0.51345524  0.66499713    -0.23100
C48         C  0.02498752  0.47339903  0.33906230    -0.23100
C49         C  0.02844372  0.51914874  0.33976841    -0.23100
C50         C  0.00002996  0.41471125  0.59686490    -0.18400
C51         C  0.00013054  0.41888310  0.40431830    -0.18400
C52         C  0.01099082  0.58092378  0.40627187    -0.18400
C53         C  0.00826516  0.57732408  0.59930714    -0.18400
H54         H  0.96068743  0.34186828  0.55205458     0.14500
H55         H  0.96041785  0.34430730  0.44781114     0.14500
H56         H  0.98081094  0.66789424  0.55578593     0.14500
H57         H  0.98213834  0.66985802  0.45162241     0.14500
H58         H  0.02730846  0.44382158  0.69762030     0.12800
H59         H  0.03184119  0.53233386  0.69892397     0.12800
H60         H  0.03242790  0.45090264  0.30551609     0.12800
H61         H  0.03903546  0.53878544  0.30681175     0.12800
H62         H  0.02219424  0.45516488  0.50089230     0.26000
H63         H  0.02732254  0.53183272  0.50222960     0.26000
N64         N  0.43529453  0.00506560  0.50700175    -0.36700
N65         N  0.50326856  0.01410177  0.58609648    -0.57300
N66         N  0.57114131  0.01289153  0.50168506    -0.36700
N67         N  0.50220060  0.00990819  0.42239780    -0.57300
C68         C  0.40853662  0.01496700  0.55054986     0.26900
C69         C  0.40787515  0.01332626  0.46434407     0.26900
C70         C  0.59443223  0.02482034  0.54342793     0.26900
C71         C  0.59381927  0.02311079  0.45755861     0.26900
C72         C  0.46948790  0.00388239  0.61816708     0.35500
C73         C  0.54173433  0.00777909  0.61528189     0.35500
C74         C  0.46750718  0.99924525  0.39351665     0.35500
C75         C  0.53982339  0.00334549  0.39081524     0.35500
C76         C  0.36369641  0.02992462  0.53536985    -0.22000
C77         C  0.36327454  0.02894231  0.48102694    -0.22000
C78         C  0.63219085  0.04294296  0.52569808    -0.22000
C79         C  0.63177859  0.04192442  0.47148093    -0.22000
C80         C  0.48654194  0.99145310  0.66803371    -0.23100
C81         C  0.53232394  0.99407425  0.66622941    -0.23100
C82         C  0.48316083  0.98604946  0.34321230    -0.23100
C83         C  0.52899731  0.98879219  0.34147442    -0.23100
C84         C  0.42305846  0.00801068  0.60362963    -0.18400
C85         C  0.42141641  0.00421918  0.41104041    -0.18400
C86         C  0.58313143  0.01275470  0.40528989    -0.18400
C87         C  0.58479647  0.01604776  0.59701264    -0.18400
H88         H  0.33424026  0.04013867  0.56083834     0.14500
H89         H  0.33337722  0.03826114  0.45658510     0.14500
H90         H  0.65780453  0.05498939  0.54941612     0.14500
H91         H  0.65700388  0.05312148  0.44531233     0.14500
H92         H  0.46802831  0.98147409  0.70219545     0.12800
H93         H  0.55596533  0.98664306  0.69866645     0.12800
H94         H  0.46358049  0.97586638  0.31096455     0.12800
H95         H  0.55167026  0.98119823  0.30772146     0.12800
H96         H  0.46908766  0.98828082  0.50666534     0.26000
H97         H  0.54506689  0.99343685  0.50344980     0.26000
C98         C  0.12678923  0.99608247  0.14063658    -0.03500
C99         C  0.12617347  0.98499538  0.19493062    -0.09200
C100        C  0.16527422  0.98375157  0.22546876    -0.16900
C101        C  0.20572085  0.99345908  0.20237523     0.25300
C102        C  0.20700953  0.00373934  0.14815827    -0.18500
C103        C  0.16777922  0.00502864  0.11739960    -0.07500
C104        C  0.24529803  0.99387205  0.23489703    -0.13900
C105        C  0.27716771  0.99471807  0.26395362    -0.13600
C106        C  0.31424170  0.99631860  0.29995907     0.25200
C107        C  0.32222634  0.96455278  0.34187097    -0.19000
C108        C  0.35747674  0.96677235  0.37752023    -0.07500
C109        C  0.38511644  0.00087518  0.37175017    -0.03600
C110        C  0.37708245  0.03252471  0.32952378    -0.08900
C111        C  0.34187538  0.03020804  0.29382218    -0.16500
H112        H  0.09519066  0.97800694  0.21415667     0.11600
H113        H  0.16376291  0.97577775  0.26731659     0.10900
H114        H  0.23813122  0.01134820  0.12981943     0.10800
H115        H  0.16928775  0.01382814  0.07579661     0.11400
H116        H  0.30103300  0.93826240  0.34718859     0.11400
H117        H  0.36306162  0.94212976  0.40988526     0.11400
H118        H  0.39777649  0.05926839  0.32462356     0.11500
H119        H  0.33595781  0.05507989  0.26170797     0.10300
C120        C  0.15161859  0.99905277  0.91384922    -0.03500
C121        C  0.17507973  0.95652587  0.89558313    -0.09200
C122        C  0.21277961  0.95470883  0.86127375    -0.16900
C123        C  0.22767629  0.99529851  0.84485604     0.25300
C124        C  0.20607783  0.03748121  0.86514851    -0.18500
C125        C  0.16842583  0.03937854  0.89952395    -0.07500
C126        C  0.26309929  0.99417587  0.80484502    -0.13900
C127        C  0.29122712  0.99503082  0.76994101    -0.13600
C128        C  0.32408352  0.99824721  0.72789756     0.25200
C129        C  0.35092814  0.03302712  0.72859527    -0.19000
C130        C  0.38255793  0.03667318  0.68786510    -0.07500
C131        C  0.38800046  0.00536358  0.64595532    -0.03600
C132        C  0.36072339  0.97073664  0.64518635    -0.08900
C133        C  0.32894130  0.96722550  0.68589379    -0.16500
H134        H  0.16312954  0.92480890  0.90598576     0.11600
H135        H  0.22926874  0.92180435  0.84612544     0.10900
H136        H  0.21733298  0.06913924  0.85293570     0.10800
H137        H  0.15116783  0.07262674  0.91281493     0.11400
H138        H  0.34740998  0.05736345  0.76066813     0.11400
H139        H  0.40307518  0.06372559  0.68914944     0.11400
H140        H  0.36442064  0.94619921  0.61332103     0.11500
H141        H  0.30829789  0.94026204  0.68468921     0.10300
C142        C  0.88279175  0.02083060  0.13581088    -0.03500
C143        C  0.88722900  0.00259460  0.18750224    -0.09200
C144        C  0.84898146  0.00556373  0.22101154    -0.16900
C145        C  0.80595100  0.02694784  0.20338095     0.25300
C146        C  0.80161076  0.04682425  0.15278858    -0.18500
C147        C  0.83975912  0.04380615  0.11918117    -0.07500
C148        C  0.76589945  0.02611061  0.23594099    -0.13900
C149        C  0.73248055  0.02346175  0.26274200    -0.13600
C150        C  0.69344302  0.01897396  0.29566107     0.25200
C151        C  0.65319855  0.05144059  0.29224460    -0.19000
C152        C  0.61628473  0.04833575  0.32639260    -0.07500
C153        C  0.61940061  0.01273227  0.36423163    -0.03600
C154        C  0.65936186  0.97960345  0.36652689    -0.08900
C155        C  0.69615753  0.98268360  0.33235568    -0.16500
H156        H  0.91985910  0.98452423  0.20135081     0.11600
H157        H  0.85273467  0.99003223  0.26010004     0.10900
H158        H  0.76849394  0.06349106  0.13874750     0.10800
H159        H  0.83526493  0.05818164  0.07961438     0.11400
H160        H  0.65073001  0.07965543  0.26400001     0.11400
H161        H  0.58591573  0.07444401  0.32454339     0.11400
H162        H  0.66243819  0.95216162  0.39581227     0.11500
H163        H  0.72707470  0.95735239  0.33533056     0.10300
C164        C  0.62250900  0.01461217  0.63518778    -0.03500
C165        C  0.62161934  0.04934334  0.67272038    -0.09200
C166        C  0.65914560  0.04949437  0.70563359    -0.16900
C167        C  0.69765504  0.01493047  0.70119745     0.25300
C168        C  0.69825578  0.97981746  0.66446270    -0.18500
C169        C  0.66087494  0.97967513  0.63155869    -0.07500
C170        C  0.73708076  0.01590054  0.73330127    -0.13900
C171        C  0.77072073  0.01610182  0.75939033    -0.13600
C172        C  0.81065030  0.01561696  0.79108488     0.25200
C173        C  0.85208936  0.98798356  0.77700762    -0.19000
C174        C  0.89015853  0.98543338  0.80965568    -0.07500
C175        C  0.88700192  0.01034347  0.85690985    -0.03600
C176        C  0.84558103  0.03913791  0.86978621    -0.08900
C177        C  0.80768103  0.04170376  0.83706915    -0.16500
H178        H  0.59237672  0.07669943  0.67564410     0.11600
H179        H  0.65842087  0.07683731  0.73393683     0.10900
H180        H  0.72787364  0.95294624  0.66073493     0.10800
H181        H  0.66206888  0.95278977  0.60259207     0.11400
H182        H  0.85466391  0.96759914  0.74146858     0.11400
H183        H  0.92138870  0.96257626  0.79902879     0.11400
H184        H  0.84202417  0.05864435  0.90598984     0.11500
H185        H  0.77577190  0.06321860  0.84827186     0.10300
C186        C  0.99873169  0.38385122  0.36276374    -0.03500
C187        C  0.96636801  0.39176279  0.32213319    -0.09200
C188        C  0.96524935  0.35864759  0.28326371    -0.16900
C189        C  0.99634152  0.31724695  0.28467301     0.25300
C190        C  0.02887596  0.30935925  0.32489329    -0.18500
C191        C  0.03005529  0.34244368  0.36372520    -0.07500
C192        C  0.99464276  0.28266371  0.24527230    -0.13900
C193        C  0.99415193  0.25312261  0.21278006    -0.13600
C194        C  0.99617778  0.21705148  0.17442470     0.25200
C195        C  0.02434300  0.21716855  0.12965397    -0.19000
C196        C  0.02991090  0.18025059  0.09477810    -0.07500
C197        C  0.00745786  0.14249841  0.10426450    -0.03600
C198        C  0.97759561  0.14353380  0.14809562    -0.08900
C199        C  0.97210482  0.18056263  0.18301785    -0.16500
H200        H  0.94195004  0.42348802  0.32071715     0.11600
H201        H  0.94000028  0.36521222  0.25231091     0.10900
H202        H  0.05320898  0.27756119  0.32636396     0.10800
H203        H  0.05538358  0.33584115  0.39458004     0.11400
H204        H  0.04305038  0.24522427  0.12246556     0.11400
H205        H  0.05298185  0.18062162  0.06131536     0.11400
H206        H  0.95974537  0.11504434  0.15644140     0.11500
H207        H  0.95010142  0.18010704  0.21746479     0.10300
C208        C  0.99774797  0.37793561  0.63718146    -0.03500
C209        C  0.96208571  0.38241871  0.67482710    -0.09200
C210        C  0.95827353  0.34628179  0.71020856    -0.16900
C211        C  0.99008786  0.30537587  0.70830779     0.25300
C212        C  0.02625152  0.30121536  0.67155292    -0.18500
C213        C  0.03004831  0.33725113  0.63615591    -0.07500
C214        C  0.98537694  0.26725810  0.74318649    -0.13900
C215        C  0.98299076  0.23434473  0.77141916    -0.13600
C216        C  0.98285615  0.19429528  0.80486018     0.25200
C217        C  0.99724152  0.15023575  0.78457371    -0.19000
C218        C  0.00102289  0.11156300  0.81793212    -0.07500
C219        C  0.99051824  0.11639209  0.87221259    -0.03600
C220        C  0.97437627  0.16065927  0.89182652    -0.08900
C221        C  0.97070616  0.19930340  0.85838362    -0.16500
H222        H  0.93678368  0.41349978  0.67602436     0.11600
H223        H  0.93020397  0.34998971  0.73849924     0.10900
H224        H  0.05115681  0.26984991  0.66976168     0.10800
H225        H  0.05774649  0.33322508  0.60737601     0.11400
H226        H  0.00669416  0.14584610  0.74322578     0.11400
H227        H  0.01343032  0.07801609  0.80148393     0.11400
H228        H  0.96610405  0.16563571  0.93337527     0.11500
H229        H  0.95952884  0.23319069  0.87459210     0.10300
C230        C  0.00367454  0.86158639  0.10326031    -0.03500
C231        C  0.96630252  0.83856869  0.11194196    -0.09200
C232        C  0.97003671  0.80068046  0.14632267    -0.16900
C233        C  0.01113597  0.78512516  0.17244077     0.25300
C234        C  0.04892573  0.80699523  0.16305472    -0.18500
C235        C  0.04528570  0.84495989  0.12862941    -0.07500
C236        C  0.01366633  0.74808148  0.21055247    -0.13900
C237        C  0.01410960  0.71825298  0.24373684    -0.13600
C238        C  0.01340660  0.68374629  0.28444620     0.25200
C239        C  0.04537056  0.67926555  0.32526788    -0.19000
C240        C  0.04446706  0.64604796  0.36509615    -0.07500
C241        C  0.01137891  0.61711877  0.36466149    -0.03600
C242        C  0.97909953  0.62212947  0.32385315    -0.08900
C243        C  0.98024892  0.65511729  0.28386660    -0.16500
H244        H  0.93372825  0.85058934  0.09331659     0.11600
H245        H  0.94052940  0.78411738  0.15339682     0.10900
H246        H  0.08088094  0.79534429  0.18320470     0.10800
H247        H  0.07458837  0.86210278  0.12317317     0.11400
H248        H  0.07104043  0.70137511  0.32623862     0.11400
H249        H  0.06967867  0.64267991  0.39611826     0.11400
H250        H  0.95320493  0.60027968  0.32291178     0.11500
H251        H  0.95522832  0.65837625  0.25261709     0.10300
C252        C  0.00619325  0.61214349  0.64172290    -0.03500
C253        C  0.04015985  0.63987598  0.64523241    -0.09200
C254        C  0.03796930  0.67251578  0.68526546    -0.16900
C255        C  0.00182173  0.67772167  0.72213570     0.25300
C256        C  0.96801927  0.65000705  0.71888851    -0.18500
C257        C  0.97013714  0.61745265  0.67889627    -0.07500
C258        C  0.99896407  0.71180239  0.76290820    -0.13900
C259        C  0.99612982  0.74065970  0.79672325    -0.13600
C260        C  0.99346304  0.77595079  0.83606102     0.23000
C261        C  0.95122672  0.80234959  0.84976291    -0.19000
C262        C  0.94923137  0.83881726  0.88505362    -0.07500
C263        C  0.98957926  0.84951007  0.90676600    -0.03600
C264        C  0.03161358  0.82164887  0.89428587    -0.08900
C265        C  0.03349478  0.78518113  0.85919111    -0.16500
H266        H  0.06827380  0.63615756  0.61701205     0.11600
H267        H  0.06434289  0.69374541  0.68737431     0.10900
H268        H  0.93990971  0.65370584  0.74713398     0.10800
H269        H  0.94361994  0.59640808  0.67676981     0.11400
H270        H  0.91999304  0.79556291  0.83207062     0.11400
H271        H  0.91641004  0.85991602  0.89334924     0.11400
H272        H  0.06328849  0.82905141  0.91018099     0.11500
H273        H  0.06636013  0.76497726  0.84897680     0.10300
loop_ 
_geom_bond_atom_site_label_1 
_geom_bond_atom_site_label_2 
_geom_bond_distance 
_geom_bond_site_symmetry_2 
_ccdc_geom_bond_type 
O1            C9   1.275   1_565  A
O1          Co21   2.030   1_655  S
O2           C10   1.298   1_655  A
O2          Co22   2.111   1_645  S
O3           C11   1.257       .  A
O3          Co23   1.978   1_544  S
O4           C12   1.269   1_655  A
O4          Co24   1.974   1_656  S
O5           C11   1.260   1_565  A
O5          Co22   2.002   1_655  S
O6           C12   1.278       .  A
O6          Co21   2.024   1_545  S
O7           C10   1.267       .  A
O7          Co24   1.888       .  S
O8            C9   1.261       .  A
O8          Co23   1.955   1_545  S
C9          C175   1.477       .  S
C10         C197   1.482       .  S
C11         C142   1.479       .  S
C12         C219   1.485   1_455  S
O13          C26   1.259   1_565  A
O13         Co21   1.978       .  S
O14          C27   1.270   1_455  A
O14         Co22   1.967       .  S
O15          C28   1.273       .  A
O15         Co23   2.027       .  S
O16          C29   1.299       .  A
O16         Co24   2.120       .  S
O17          C29   1.263   1_565  A
O17         Co22   1.882       .  S
O18          C28   1.261   1_455  A
O18         Co21   1.963       .  S
O19          C26   1.267       .  A
O19         Co24   2.012   1_556  S
O20          C27   1.280       .  A
O20         Co23   2.026   1_554  S
Co21         O25   2.025   1_455  S
Co22         O25   1.995   1_454  S
Co23         O25   2.026       .  S
Co24         O25   2.003   1_444  S
C26         C120   1.485   1_545  S
C27         C230   1.482   1_655  S
C28         C263   1.481       .  S
C29          C98   1.482   1_545  S
N30          C35   1.354   1_455  A
N30          C34   1.353   1_455  A
N30          H62   1.039       .  S
N31          C38   1.353       .  A
N31          C39   1.352       .  A
N32          C37   1.355       .  A
N32          C36   1.355       .  A
N32          H63   1.041       .  S
N33          C40   1.353       .  A
N33          C41   1.352       .  A
C34          C42   1.387       .  A
C34          C50   1.416   1_655  A
C35          C51   1.416   1_655  A
C35          C43   1.387       .  A
C36          C44   1.387   1_455  A
C36          C53   1.418       .  A
C37          C52   1.418       .  A
C37          C45   1.387   1_455  A
C38          C50   1.414       .  A
C38          C46   1.386       .  A
C39          C53   1.415       .  A
C39          C47   1.387       .  A
C40          C48   1.385       .  A
C40          C51   1.413       .  A
C41          C49   1.387       .  A
C41          C52   1.415       .  A
C42          C43   1.375       .  A
C42          H54   1.082       .  S
C43          H55   1.082       .  S
C44          C45   1.376       .  A
C44          H56   1.082       .  S
C45          H57   1.082       .  S
C46          C47   1.373       .  A
C46          H58   1.082       .  S
C47          H59   1.082       .  S
C48          C49   1.371       .  A
C48          H60   1.082       .  S
C49          H61   1.082       .  S
C50         C208   1.488   1_455  S
C51         C186   1.490   1_455  S
C52         C241   1.491       .  S
C53         C252   1.489       .  S
N64          C69   1.354       .  A
N64          C68   1.356       .  A
N64          H96   1.040   1_545  S
N65          C72   1.352       .  A
N65          C73   1.352       .  A
N66          C71   1.353       .  A
N66          C70   1.352       .  A
N66          H97   1.038   1_545  S
N67          C74   1.351   1_545  A
N67          C75   1.353       .  A
C68          C76   1.386       .  A
C68          C84   1.417       .  A
C69          C85   1.419       .  A
C69          C77   1.388       .  A
C70          C78   1.387       .  A
C70          C87   1.412       .  A
C71          C86   1.413       .  A
C71          C79   1.388       .  A
C72          C84   1.415       .  A
C72          C80   1.387   1_545  A
C73          C87   1.411       .  A
C73          C81   1.385   1_545  A
C74          C82   1.387       .  A
C74          C85   1.416   1_565  A
C75          C83   1.385   1_545  A
C75          C86   1.413       .  A
C76          C77   1.376       .  A
C76          H88   1.082       .  S
C77          H89   1.082       .  S
C78          C79   1.373       .  A
C78          H90   1.083       .  S
C79          H91   1.082       .  S
C80          C81   1.373       .  A
C80          H92   1.082       .  S
C81          H93   1.082       .  S
C82          C83   1.375       .  A
C82          H94   1.082       .  S
C83          H95   1.082       .  S
C84         C131   1.493       .  S
C85         C109   1.491       .  S
C86         C153   1.486       .  S
C87         C164   1.482       .  S
C98          C99   1.409       .  A
C98         C103   1.407   1_565  A
C99         C100   1.397       .  A
C99         H112   1.083       .  S
C100        C101   1.398       .  A
C100        H113   1.084       .  S
C101        C102   1.402   1_565  A
C101        C104   1.444       .  S
C102        C103   1.403       .  A
C102        H114   1.083       .  S
C103        H115   1.083       .  S
C104        C105   1.209       .  T
C105        C106   1.444       .  S
C106        C107   1.401       .  A
C106        C111   1.401   1_565  A
C107        C108   1.400       .  A
C107        H116   1.083       .  S
C108        C109   1.406   1_565  A
C108        H117   1.083       .  S
C109        C110   1.405       .  A
C110        C111   1.400       .  A
C110        H118   1.083       .  S
C111        H119   1.083       .  S
C120        C121   1.409       .  A
C120        C125   1.407   1_565  A
C121        C122   1.401       .  A
C121        H134   1.083       .  S
C122        C123   1.401       .  A
C122        H135   1.083       .  S
C123        C124   1.401   1_565  A
C123        C126   1.446       .  S
C124        C125   1.401       .  A
C124        H136   1.083       .  S
C125        H137   1.083       .  S
C126        C127   1.210       .  T
C127        C128   1.446       .  S
C128        C129   1.401   1_565  A
C128        C133   1.402       .  A
C129        C130   1.400       .  A
C129        H138   1.083       .  S
C130        C131   1.406       .  A
C130        H139   1.083       .  S
C131        C132   1.406   1_545  A
C132        C133   1.402       .  A
C132        H140   1.083       .  S
C133        H141   1.083       .  S
C142        C143   1.407       .  A
C142        C147   1.407       .  A
C143        C144   1.399       .  A
C143        H156   1.083   1_545  S
C144        C145   1.400       .  A
C144        H157   1.084   1_545  S
C145        C146   1.399       .  A
C145        C148   1.440       .  S
C146        C147   1.398       .  A
C146        H158   1.083       .  S
C147        H159   1.083       .  S
C148        C149   1.206       .  T
C149        C150   1.441       .  S
C150        C151   1.402       .  A
C150        C155   1.400   1_545  A
C151        C152   1.400       .  A
C151        H160   1.083       .  S
C152        C153   1.404       .  A
C152        H161   1.083       .  S
C153        C154   1.405   1_545  A
C154        C155   1.398       .  A
C154        H162   1.083       .  S
C155        H163   1.084       .  S
C164        C165   1.403       .  A
C164        C169   1.404   1_545  A
C165        C166   1.399       .  A
C165        H178   1.083       .  S
C166        C167   1.401       .  A
C166        H179   1.083       .  S
C167        C168   1.399   1_545  A
C167        C170   1.437       .  S
C168        C169   1.395       .  A
C168        H180   1.084       .  S
C169        H181   1.083       .  S
C170        C171   1.204       .  T
C171        C172   1.437       .  S
C172        C173   1.400   1_545  A
C172        C177   1.398       .  A
C173        C174   1.399       .  A
C173        H182   1.083       .  S
C174        C175   1.406   1_565  A
C174        H183   1.083       .  S
C175        C176   1.408       .  A
C176        C177   1.396       .  A
C176        H184   1.083       .  S
C177        H185   1.084       .  S
C186        C187   1.406       .  A
C186        C191   1.405   1_655  A
C187        C188   1.400       .  A
C187        H200   1.083       .  S
C188        C189   1.401       .  A
C188        H201   1.083       .  S
C189        C190   1.401   1_655  A
C189        C192   1.444       .  S
C190        C191   1.399       .  A
C190        H202   1.083       .  S
C191        H203   1.083       .  S
C192        C193   1.208       .  T
C193        C194   1.443       .  S
C194        C195   1.399   1_655  A
C194        C199   1.401       .  A
C195        C196   1.398       .  A
C195        H204   1.083       .  S
C196        C197   1.407       .  A
C196        H205   1.083       .  S
C197        C198   1.408   1_455  A
C198        C199   1.401       .  A
C198        H206   1.083       .  S
C199        H207   1.083       .  S
C208        C209   1.405       .  A
C208        C213   1.404   1_655  A
C209        C210   1.401       .  A
C209        H222   1.083       .  S
C210        C211   1.402       .  A
C210        H223   1.083       .  S
C211        C212   1.401   1_655  A
C211        C214   1.444       .  S
C212        C213   1.399       .  A
C212        H224   1.083       .  S
C213        H225   1.083       .  S
C214        C215   1.209       .  T
C215        C216   1.444       .  S
C216        C217   1.400       .  A
C216        C221   1.400       .  A
C217        C218   1.400   1_655  A
C217        H226   1.084   1_655  S
C218        C219   1.408   1_455  A
C218        H227   1.083       .  S
C219        C220   1.408       .  A
C220        C221   1.401       .  A
C220        H228   1.083       .  S
C221        H229   1.083       .  S
C230        C231   1.407   1_455  A
C230        C235   1.408       .  A
C231        C232   1.397       .  A
C231        H244   1.083       .  S
C232        C233   1.399   1_655  A
C232        H245   1.084       .  S
C233        C234   1.400       .  A
C233        C236   1.441       .  S
C234        C235   1.400       .  A
C234        H246   1.083       .  S
C235        H247   1.083       .  S
C236        C237   1.207       .  T
C237        C238   1.441       .  S
C238        C239   1.401       .  A
C238        C243   1.400   1_455  A
C239        C240   1.399       .  A
C239        H248   1.083       .  S
C240        C241   1.405       .  A
C240        H249   1.083       .  S
C241        C242   1.406   1_455  A
C242        C243   1.398       .  A
C242        H250   1.083       .  S
C243        H251   1.084       .  S
C252        C253   1.405       .  A
C252        C257   1.405   1_455  A
C253        C254   1.401       .  A
C253        H266   1.083       .  S
C254        C255   1.402       .  A
C254        H267   1.083       .  S
C255        C256   1.400   1_455  A
C255        C258   1.442   1_455  S
C256        C257   1.398       .  A
C256        H268   1.083       .  S
C257        H269   1.083       .  S
C258        C259   1.208       .  T
C259        C260   1.442       .  S
C260        C261   1.401       .  A
C260        C265   1.399   1_655  A
C261        C262   1.401       .  A
C261        H270   1.083       .  S
C262        C263   1.408       .  A
C262        H271   1.083       .  S
C263        C264   1.407   1_655  A
C264        C265   1.398       .  A
C264        H272   1.083       .  S
C265        H273   1.083       .  S
