geometry optimzed in LAMMPS
_audit_creation_date              2020-11-30 
_audit_creation_method            'lammps2cif' 
_symmetry_space_group_name_H-M    'P1' 
_symmetry_Int_Tables_number       1 
_symmetry_cell_setting            triclinic 
loop_ 
_symmetry_equiv_pos_as_xyz 
  x,y,z 
_cell_length_a                    26.06737777 
_cell_length_b                    26.0784764215994 
_cell_length_c                    23.425277129959262 
_cell_angle_alpha                 89.94853854295987 
_cell_angle_beta                  89.93666589609637 
_cell_angle_gamma                 86.01087131519886 
loop_ 
_atom_site_label 
_atom_site_type_symbol 
_atom_site_fract_x 
_atom_site_fract_y 
_atom_site_fract_z 
_atom_site_charge 
N1          N  0.97033163  0.55980358  0.76674984    -0.25400
N2          N  0.98407578  0.54908717  0.81980071    -0.33300
C3          C  0.97979923  0.49923087  0.83022665     0.02900
C4          C  0.96219277  0.47650578  0.78157867     0.08900
C5          C  0.95677154  0.51600069  0.74152141    -0.04200
H6          H  0.98486529  0.48176628  0.87196540     0.09600
H7          H  0.93988864  0.51404114  0.69949094     0.10800
Cu8        Cu  0.99392918  0.60344401  0.88093093     0.44200
Cu9        Cu  0.96414328  0.63686390  0.74126597     0.42000
Cu10       Cu  0.95711084  0.73407978  0.86414588     0.43900
N11         N  0.98675548  0.65287644  0.94871818    -0.32800
N12         N  0.97107207  0.70193375  0.94491294    -0.27100
C13         C  0.96708203  0.72161129  0.99834986    -0.03200
C14         C  0.98097139  0.68238729  0.03686560     0.09100
C15         C  0.99313562  0.63969536  0.00349818     0.02900
H16         H  0.95447462  0.76098629  0.00839166     0.10500
H17         H  0.00459658  0.60116794  0.01778971     0.09600
N18         N  0.95641033  0.75072965  0.77666933    -0.34300
N19         N  0.95930151  0.71716918  0.73399108    -0.26400
C20         C  0.95952386  0.74314809  0.68426637    -0.01700
C21         C  0.95682676  0.79540584  0.69586542     0.06900
C22         C  0.95491275  0.79853978  0.75484694     0.05000
H23         H  0.96190024  0.72516105  0.64264013     0.10100
H24         H  0.95296908  0.83332222  0.78014868     0.09000
N25         N  0.93411147  0.34186607  0.76606293    -0.25400
N26         N  0.91959208  0.35234473  0.81896706    -0.33300
C27         C  0.92362127  0.40218636  0.82962074     0.04500
C28         C  0.94181738  0.42514665  0.78132200     0.08900
C29         C  0.94786693  0.38581749  0.74120874    -0.04200
H30         H  0.91796549  0.41948940  0.87134672     0.09600
H31         H  0.96533599  0.38797790  0.69945105     0.10800
Cu32       Cu  0.90886023  0.29801509  0.88014206     0.44200
Cu33       Cu  0.94123864  0.26503375  0.73985413     0.42000
Cu34       Cu  0.94678681  0.16787085  0.86259515     0.43900
N35         N  0.91616046  0.24816588  0.94775938    -0.32800
N36         N  0.93225634  0.19924943  0.94352084    -0.27100
C37         C  0.93668669  0.17916159  0.99675757    -0.03200
C38         C  0.92270948  0.21796450  0.03566680     0.09100
C39         C  0.90997319  0.26086158  0.00270814     0.02900
H40         H  0.94987518  0.13984839  0.00639970     0.10500
H41         H  0.89840705  0.29922729  0.01739848     0.09600
N42         N  0.94874417  0.15120719  0.77517619    -0.34300
N43         N  0.94630227  0.18471589  0.73238934    -0.26400
C44         C  0.94620216  0.15865754  0.68272041    -0.01700
C45         C  0.94845828  0.10641406  0.69451584     0.06900
C46         C  0.95014097  0.10338705  0.75351968     0.05000
H47         H  0.94404395  0.17656429  0.64101718     0.10100
H48         H  0.95161023  0.06865888  0.77896405     0.09000
N49         N  0.56174651  0.97517353  0.76714220    -0.25400
N50         N  0.55163287  0.98823949  0.82051970    -0.33300
C51         C  0.50186205  0.98389312  0.83152621     0.02900
C52         C  0.47854423  0.96706995  0.78286766     0.08900
C53         C  0.51761224  0.96210778  0.74223189    -0.04200
H54         H  0.48485931  0.98839489  0.87356400     0.09600
H55         H  0.51516775  0.94574724  0.69999126     0.10800
Cu56       Cu  0.60677352  0.99717093  0.88095776     0.44200
Cu57       Cu  0.63861525  0.96840117  0.74103722     0.42000
Cu58       Cu  0.73639038  0.95684141  0.86366782     0.43900
N59         N  0.65616423  0.98815501  0.94850730    -0.32800
N60         N  0.70481218  0.97097461  0.94455070    -0.27100
C61         C  0.72428577  0.96546985  0.99794584    -0.03200
C62         C  0.68529869  0.97989861  0.03656071     0.09100
C63         C  0.64301197  0.99401015  0.00332962     0.02900
H64         H  0.76323524  0.95119914  0.00787510     0.10500
H65         H  0.60468940  0.00626345  0.01769968     0.09600
N66         N  0.75252646  0.95653562  0.77616011    -0.34300
N67         N  0.71886733  0.96082490  0.73361808    -0.26400
C68         C  0.74476357  0.96051748  0.68381626    -0.01700
C69         C  0.79705421  0.95612878  0.69525713     0.06900
C70         C  0.80031255  0.95375495  0.75419144     0.05000
H71         H  0.72671306  0.96387885  0.64227172     0.10100
H72         H  0.83517472  0.95063578  0.77937093     0.09000
N73         N  0.34374167  0.93889083  0.76779766    -0.25400
N74         N  0.35454697  0.92379787  0.82043144    -0.33300
C75         C  0.40440127  0.92807384  0.83097278     0.02900
C76         C  0.42704216  0.94696238  0.78282991     0.08900
C77         C  0.38750549  0.95323925  0.74297480    -0.04200
H78         H  0.42197968  0.92178973  0.87247044     0.09600
H79         H  0.38944856  0.97095414  0.70133287     0.10800
Cu80       Cu  0.30041678  0.91099341  0.88117285     0.44200
Cu81       Cu  0.26673754  0.94483600  0.74169147     0.42000
Cu82       Cu  0.16926228  0.94680461  0.86342665     0.43900
N83         N  0.24999590  0.91671619  0.94834674    -0.32800
N84         N  0.20085002  0.93201415  0.94409508    -0.27100
C85         C  0.18045425  0.93523821  0.99725173    -0.03200
C86         C  0.21927848  0.92125756  0.03609726     0.09100
C87         C  0.26252122  0.90984420  0.00322743     0.02900
H88         H  0.14084291  0.94735846  0.00687214     0.10500
H89         H  0.30096830  0.89862638  0.01794242     0.09600
N90         N  0.15272818  0.94849541  0.77606841    -0.34300
N91         N  0.18640086  0.94706575  0.73344374    -0.26400
C92         C  0.16053235  0.94612722  0.68366885    -0.01700
C93         C  0.10824922  0.94689721  0.69527136     0.06900
C94         C  0.10502484  0.94852431  0.75425818     0.05000
H95         H  0.17857585  0.94471064  0.64201607     0.10100
H96         H  0.07024456  0.94914107  0.77959070     0.09000
C97         C  0.94871058  0.06163976  0.65354524    -0.00600
C98         C  0.06353993  0.94666947  0.65416788    -0.00600
C99         C  0.84159753  0.95501261  0.65394246    -0.00600
C100        C  0.95633828  0.83997939  0.65458086    -0.00600
N101        N  0.56017636  0.96101890  0.36782865    -0.25400
N102        N  0.54937685  0.97604943  0.31517256    -0.33300
C103        C  0.49953128  0.97173189  0.30462182     0.02900
C104        C  0.47688813  0.95288342  0.35278283     0.08900
C105        C  0.51641428  0.94667325  0.39265880    -0.04200
H106        H  0.48196046  0.97797178  0.26311397     0.09600
H107        H  0.51446614  0.92901126  0.43432753     0.10800
Cu108      Cu  0.60350201  0.98885701  0.25443329     0.44200
Cu109      Cu  0.63717537  0.95515935  0.39396234     0.42000
Cu110      Cu  0.73465917  0.95319596  0.27220815     0.43900
N111        N  0.65391979  0.98314179  0.18726303    -0.32800
N112        N  0.70307876  0.96790354  0.19152492    -0.27100
C113        C  0.72348432  0.96469561  0.13837218    -0.03200
C114        C  0.68465060  0.97862491  0.09951985     0.09100
C115        C  0.64139301  0.98998840  0.13238097     0.02900
H116        H  0.76311158  0.95263230  0.12876015     0.10500
H117        H  0.60293945  0.00116964  0.11766148     0.09600
N118        N  0.75118084  0.95157383  0.35956551    -0.34300
N119        N  0.71751205  0.95300387  0.40219448    -0.26400
C120        C  0.74338571  0.95397201  0.45196412    -0.01700
C121        C  0.79566673  0.95321749  0.44035108     0.06900
C122        C  0.79888450  0.95157390  0.38136632     0.05000
H123        H  0.72534850  0.95538460  0.49361950     0.10100
H124        H  0.83366181  0.95095264  0.35602766     0.09000
N125        N  0.34217680  0.92472434  0.36849093    -0.25400
N126        N  0.35228957  0.91160773  0.31512773    -0.33300
C127        C  0.40206648  0.91591997  0.30412273     0.02900
C128        C  0.42538623  0.93277614  0.35276595     0.08900
C129        C  0.38631407  0.93779225  0.39339142    -0.04200
H130        H  0.41907141  0.91138308  0.26209008     0.09600
H131        H  0.38875796  0.95419599  0.43561043     0.10800
Cu132      Cu  0.29714311  0.90268956  0.25468435     0.44200
Cu133      Cu  0.26531181  0.93157232  0.39458580     0.42000
Cu134      Cu  0.16757702  0.94323974  0.27194171     0.43900
N135        N  0.24776789  0.91175262  0.18711721    -0.32800
N136        N  0.19914307  0.92901545  0.19106611    -0.27100
C137        C  0.17967352  0.93452171  0.13766930    -0.03200
C138        C  0.21863769  0.92000780  0.09905879     0.09100
C139        C  0.26090859  0.90584612  0.13229538     0.02900
H140        H  0.14074438  0.94885042  0.12773535     0.10500
H141        H  0.29921479  0.89352235  0.11792674     0.09600
N142        N  0.15141392  0.94355511  0.35944870    -0.34300
N143        N  0.18506553  0.93923091  0.40199562    -0.26400
C144        C  0.15916438  0.93955105  0.45179410    -0.01700
C145        C  0.10687595  0.94398135  0.44034872     0.06900
C146        C  0.10362465  0.94636769  0.38141268     0.05000
H147        H  0.17721041  0.93616132  0.49334032     0.10100
H148        H  0.06876554  0.94951216  0.35622971     0.09000
N149        N  0.97004661  0.55826380  0.36949768    -0.25400
N150        N  0.98465212  0.54778132  0.31662164    -0.33300
C151        C  0.98067135  0.49792975  0.30597365     0.02900
C152        C  0.96241973  0.47496934  0.35424644     0.08900
C153        C  0.95628277  0.51430922  0.39433649    -0.04200
H154        H  0.98638759  0.48061846  0.26425922     0.09600
H155        H  0.93874466  0.51215222  0.43605806     0.10800
Cu156      Cu  0.99540138  0.60211954  0.25544820     0.44200
Cu157      Cu  0.96281116  0.63509678  0.39568968     0.42000
Cu158      Cu  0.95725092  0.73225012  0.27297302     0.43900
N159        N  0.98801128  0.65196669  0.18782431    -0.32800
N160        N  0.97183135  0.70086237  0.19205712    -0.27100
C161        C  0.96734420  0.72093406  0.13881671    -0.03200
C162        C  0.98137040  0.68214423  0.09990917     0.09100
C163        C  0.99419585  0.63927085  0.13287363     0.02900
H164        H  0.95407931  0.76022525  0.12917103     0.10500
H165        H  0.00581694  0.60091739  0.11818537     0.09600
N166        N  0.95524531  0.74892383  0.36039215    -0.34300
N167        N  0.95768554  0.71541173  0.40317504    -0.26400
C168        C  0.95775409  0.74146499  0.45284901    -0.01700
C169        C  0.95548033  0.79371036  0.44106211     0.06900
C170        C  0.95381862  0.79674308  0.38205654     0.05000
H171        H  0.95991103  0.72355364  0.49454963     0.10100
H172        H  0.95234978  0.83147384  0.35661767     0.09000
N173        N  0.93385317  0.34031610  0.36879062    -0.25400
N174        N  0.92015333  0.35103740  0.31572759    -0.33300
C175        C  0.92446955  0.40088741  0.30529964     0.02900
C176        C  0.94204871  0.42360727  0.35396265     0.08900
C177        C  0.94741719  0.38411400  0.39402877    -0.04200
H178        H  0.91943205  0.41835355  0.26355742     0.09600
H179        H  0.96425882  0.38607182  0.43608059     0.10800
Cu180      Cu  0.91024585  0.29668507  0.25461598     0.44200
Cu181      Cu  0.93995781  0.26324763  0.39427878     0.42000
Cu182      Cu  0.94685079  0.16599912  0.27142920     0.43900
N183        N  0.91732130  0.24722974  0.18685111    -0.32800
N184        N  0.93293242  0.19815452  0.19066147    -0.27100
C185        C  0.93690260  0.17847171  0.13722603    -0.03200
C186        C  0.92307568  0.21771191  0.09870829     0.09100
C187        C  0.91096586  0.26041696  0.13207154     0.02900
H188        H  0.94946345  0.13908470  0.12718668     0.10500
H189        H  0.89957102  0.29895984  0.11777788     0.09600
N190        N  0.94755134  0.14936889  0.35890721    -0.34300
N191        N  0.94470209  0.18293787  0.40157808    -0.26400
C192        C  0.94446321  0.15696670  0.45130826    -0.01700
C193        C  0.94710941  0.10470696  0.43971875     0.06900
C194        C  0.94900945  0.10156371  0.38073814     0.05000
H195        H  0.94212033  0.17496002  0.49293261     0.10100
H196        H  0.95092090  0.06677803  0.35544245     0.09000
C197        C  0.94758765  0.06013711  0.48100885    -0.00600
C198        C  0.06233056  0.94510555  0.48166305    -0.00600
C199        C  0.95521408  0.83848027  0.48204198    -0.00600
C200        C  0.84038293  0.95344799  0.48144212    -0.00600
C201        C  0.90885241  0.87304171  0.47391005    -0.11400
C202        C  0.87496911  0.90704448  0.47373133    -0.13000
C203        C  0.03145016  0.90072568  0.47260094    -0.11400
C204        C  0.99972617  0.86907425  0.47238345    -0.13000
C205        C  0.87109198  0.99792778  0.47159001    -0.11400
C206        C  0.90295585  0.02950122  0.47177645    -0.13000
C207        C  0.02795294  0.99159201  0.47324244    -0.11400
C208        C  0.99398947  0.02554268  0.47296254    -0.13000
C209        C  0.95706989  0.82404977  0.59422649    -0.11400
C210        C  0.95649893  0.82329179  0.54261989    -0.13000
C211        C  0.82569528  0.95563700  0.59358114    -0.11400
C212        C  0.82502168  0.95499172  0.54197234    -0.13000
C213        C  0.87597732  0.90852694  0.66235981    -0.11400
C214        C  0.90993618  0.87457165  0.66263401    -0.13000
C215        C  0.07890690  0.94512510  0.59363756    -0.11400
C216        C  0.07823098  0.94447971  0.54202752    -0.13000
C217        C  0.03282959  0.90219046  0.66401265    -0.11400
C218        C  0.00096697  0.87061665  0.66381736    -0.13000
C219        C  0.94742489  0.07682438  0.59296687    -0.11400
C220        C  0.94685490  0.07607046  0.54136072    -0.13000
C221        C  0.90419487  0.03105183  0.66321323    -0.11400
C222        C  0.87247327  0.99939735  0.66300202    -0.13000
C223        C  0.99506874  0.02707431  0.66168007    -0.11400
C224        C  0.02895217  0.99307206  0.66187118    -0.13000
loop_ 
_geom_bond_atom_site_label_1 
_geom_bond_atom_site_label_2 
_geom_bond_distance 
_geom_bond_site_symmetry_2 
_ccdc_geom_bond_type 
N1            N2   1.318       .  A
N1            C5   1.355       .  A
N1           Cu9   2.091       .  S
N2            C3   1.335       .  A
N2           Cu8   2.045       .  S
C3            C4   1.379       .  A
C3            H6   1.083       .  S
C4            C5   1.393       .  A
C4           C28   1.475       .  S
C5            H7   1.082       .  S
Cu8          N11   2.046       .  S
Cu9          N19   2.096       .  S
Cu10         N12   2.091       .  S
Cu10         N18   2.094       .  S
N11          N12   1.319       .  A
N11          C15   1.336   1_556  A
N12          C13   1.354       .  A
C13          C14   1.392   1_556  A
C13          H16   1.082   1_556  S
C14          C15   1.379       .  A
C14         C162   1.477       .  S
C15          H17   1.081   1_655  S
N18          N19   1.328       .  A
N18          C22   1.345       .  A
N19          C20   1.347       .  A
C20          C21   1.387       .  A
C20          H23   1.082       .  S
C21          C22   1.385       .  A
C21         C100   1.511       .  S
C22          H24   1.082       .  S
N25          N26   1.319       .  A
N25          C29   1.355       .  A
N25         Cu33   2.092       .  S
N26          C27   1.335       .  A
N26         Cu32   2.047       .  S
C27          C28   1.379       .  A
C27          H30   1.083       .  S
C28          C29   1.392       .  A
C29          H31   1.082       .  S
Cu32         N35   2.049       .  S
Cu33         N43   2.097       .  S
Cu34         N36   2.089       .  S
Cu34         N42   2.094       .  S
N35          N36   1.319       .  A
N35          C39   1.336   1_556  A
N36          C37   1.354       .  A
C37          C38   1.392   1_556  A
C37          H40   1.082   1_556  S
C38          C39   1.380       .  A
C38         C186   1.477       .  S
C39          H41   1.081       .  S
N42          N43   1.328       .  A
N42          C46   1.345       .  A
N43          C44   1.348       .  A
C44          C45   1.387       .  A
C44          H47   1.082       .  S
C45          C46   1.385       .  A
C45          C97   1.512       .  S
C46          H48   1.082       .  S
N49          N50   1.318       .  A
N49          C53   1.355       .  A
N49         Cu57   2.090       .  S
N50          C51   1.335       .  A
N50         Cu56   2.044       .  S
C51          C52   1.379       .  A
C51          H54   1.083       .  S
C52          C53   1.393       .  A
C52          C76   1.475       .  S
C53          H55   1.082       .  S
Cu56         N59   2.044       .  S
Cu57         N67   2.095       .  S
Cu58         N60   2.088       .  S
Cu58         N66   2.092       .  S
N59          N60   1.318       .  A
N59          C63   1.335   1_556  A
N60          C61   1.354       .  A
C61          C62   1.392   1_556  A
C61          H64   1.082   1_556  S
C62          C63   1.379       .  A
C62         C114   1.475       .  S
C63          H65   1.081   1_565  S
N66          N67   1.328       .  A
N66          C70   1.345       .  A
N67          C68   1.347       .  A
C68          C69   1.386       .  A
C68          H71   1.082       .  S
C69          C70   1.384       .  A
C69          C99   1.509       .  S
C70          H72   1.082       .  S
N73          N74   1.319       .  A
N73          C77   1.355       .  A
N73         Cu81   2.094       .  S
N74          C75   1.335       .  A
N74         Cu80   2.046       .  S
C75          C76   1.379       .  A
C75          H78   1.083       .  S
C76          C77   1.392       .  A
C77          H79   1.082       .  S
Cu80         N83   2.048       .  S
Cu81         N91   2.100       .  S
Cu82         N84   2.087       .  S
Cu82         N90   2.092       .  S
N83          N84   1.319       .  A
N83          C87   1.336   1_556  A
N84          C85   1.354       .  A
C85          C86   1.391   1_556  A
C85          H88   1.082   1_556  S
C86          C87   1.380       .  A
C86         C138   1.475       .  S
C87          H89   1.081       .  S
N90          N91   1.328       .  A
N90          C94   1.345       .  A
N91          C92   1.349       .  A
C92          C93   1.388       .  A
C92          H95   1.082       .  S
C93          C94   1.385       .  A
C93          C98   1.513       .  S
C94          H96   1.082       .  S
C97         C219   1.473       .  S
C97         C221   1.470       .  S
C97         C223   1.469       .  S
C98         C215   1.473       .  S
C98         C217   1.472       .  S
C98         C224   1.469       .  S
C99         C211   1.474       .  S
C99         C213   1.470       .  S
C99         C222   1.471       .  S
C100        C209   1.474       .  S
C100        C214   1.470       .  S
C100        C218   1.473   1_655  S
N101        N102   1.319       .  A
N101        C105   1.355       .  A
N101       Cu109   2.094       .  S
N102        C103   1.335       .  A
N102       Cu108   2.046       .  S
C103        C104   1.379       .  A
C103        H106   1.083       .  S
C104        C105   1.392       .  A
C104        C128   1.475       .  S
C105        H107   1.082       .  S
Cu108       N111   2.048       .  S
Cu109       N119   2.100       .  S
Cu110       N112   2.087       .  S
Cu110       N118   2.091       .  S
N111        N112   1.319       .  A
N111        C115   1.336       .  A
N112        C113   1.354       .  A
C113        C114   1.391       .  A
C113        H116   1.082       .  S
C114        C115   1.380       .  A
C115        H117   1.081   1_565  S
N118        N119   1.328       .  A
N118        C122   1.345       .  A
N119        C120   1.349       .  A
C120        C121   1.388       .  A
C120        H123   1.082       .  S
C121        C122   1.385       .  A
C121        C200   1.513       .  S
C122        H124   1.082       .  S
N125        N126   1.318       .  A
N125        C129   1.355       .  A
N125       Cu133   2.090       .  S
N126        C127   1.335       .  A
N126       Cu132   2.044       .  S
C127        C128   1.379       .  A
C127        H130   1.083       .  S
C128        C129   1.393       .  A
C129        H131   1.082       .  S
Cu132       N135   2.044       .  S
Cu133       N143   2.094       .  S
Cu134       N136   2.088       .  S
Cu134       N142   2.092       .  S
N135        N136   1.318       .  A
N135        C139   1.335       .  A
N136        C137   1.354       .  A
C137        C138   1.392       .  A
C137        H140   1.082       .  S
C138        C139   1.379       .  A
C139        H141   1.081       .  S
N142        N143   1.328       .  A
N142        C146   1.345       .  A
N143        C144   1.347       .  A
C144        C145   1.386       .  A
C144        H147   1.082       .  S
C145        C146   1.384       .  A
C145        C198   1.510       .  S
C146        H148   1.082       .  S
N149        N150   1.319       .  A
N149        C153   1.355       .  A
N149       Cu157   2.092       .  S
N150        C151   1.335       .  A
N150       Cu156   2.047       .  S
C151        C152   1.379       .  A
C151        H154   1.083       .  S
C152        C153   1.392       .  A
C152        C176   1.475       .  S
C153        H155   1.082       .  S
Cu156       N159   2.049       .  S
Cu157       N167   2.097       .  S
Cu158       N160   2.089       .  S
Cu158       N166   2.094       .  S
N159        N160   1.319       .  A
N159        C163   1.336       .  A
N160        C161   1.354       .  A
C161        C162   1.392       .  A
C161        H164   1.082       .  S
C162        C163   1.380       .  A
C163        H165   1.081   1_655  S
N166        N167   1.328       .  A
N166        C170   1.345       .  A
N167        C168   1.348       .  A
C168        C169   1.387       .  A
C168        H171   1.082       .  S
C169        C170   1.385       .  A
C169        C199   1.512       .  S
C170        H172   1.082       .  S
N173        N174   1.318       .  A
N173        C177   1.355       .  A
N173       Cu181   2.092       .  S
N174        C175   1.335       .  A
N174       Cu180   2.045       .  S
C175        C176   1.379       .  A
C175        H178   1.083       .  S
C176        C177   1.393       .  A
C177        H179   1.082       .  S
Cu180       N183   2.046       .  S
Cu181       N191   2.096       .  S
Cu182       N184   2.091       .  S
Cu182       N190   2.094       .  S
N183        N184   1.319       .  A
N183        C187   1.336       .  A
N184        C185   1.354       .  A
C185        C186   1.392       .  A
C185        H188   1.082       .  S
C186        C187   1.379       .  A
C187        H189   1.081       .  S
N190        N191   1.328       .  A
N190        C194   1.345       .  A
N191        C192   1.347       .  A
C192        C193   1.387       .  A
C192        H195   1.082       .  S
C193        C194   1.385       .  A
C193        C197   1.511       .  S
C194        H196   1.082       .  S
C197        C206   1.473       .  S
C197        C208   1.470       .  S
C197        C220   1.474       .  S
C198        C203   1.471       .  S
C198        C207   1.470       .  S
C198        C216   1.474       .  S
C199        C201   1.469       .  S
C199        C204   1.470       .  S
C199        C210   1.473       .  S
C200        C202   1.469       .  S
C200        C205   1.472       .  S
C200        C212   1.473       .  S
C201        C202   1.207       .  T
C203        C204   1.208   1_455  T
C205        C206   1.210   1_565  T
C207        C208   1.208   1_465  T
C209        C210   1.209       .  T
C211        C212   1.209       .  T
C213        C214   1.208       .  T
C215        C216   1.209       .  T
C217        C218   1.210       .  T
C219        C220   1.209       .  T
C221        C222   1.208   1_545  T
C223        C224   1.207   1_645  T
