geometry optimzed in LAMMPS
_audit_creation_date              2020-12-01 
_audit_creation_method            'lammps2cif' 
_symmetry_space_group_name_H-M    'P1' 
_symmetry_Int_Tables_number       1 
_symmetry_cell_setting            triclinic 
loop_ 
_symmetry_equiv_pos_as_xyz 
  x,y,z 
_cell_length_a                    24.82176078 
_cell_length_b                    24.82172510473249 
_cell_length_c                    24.821796981784168 
_cell_angle_alpha                 90.00652600525738 
_cell_angle_beta                  89.99954815322808 
_cell_angle_gamma                 89.99403022700908 
loop_ 
_atom_site_label 
_atom_site_type_symbol 
_atom_site_fract_x 
_atom_site_fract_y 
_atom_site_fract_z 
_atom_site_charge 
N1          N  0.49781310  0.56259338  0.29687655     0.02700
C2          C  0.47852114  0.54756477  0.24809504     0.05200
C3          C  0.42415408  0.55925738  0.24470765    -0.17600
C4          C  0.40970297  0.58254251  0.29309083    -0.17800
C5          C  0.45584437  0.58434885  0.32404685     0.05100
H6          H  0.39802948  0.55257710  0.21039418     0.18900
H7          H  0.37009711  0.59720626  0.30411130     0.19000
N8          N  0.54478894  0.41914944  0.60607664     0.02700
C9          C  0.56363981  0.43327266  0.65528302     0.05200
C10         C  0.61770128  0.42048174  0.65943162    -0.17600
C11         C  0.63250001  0.39747250  0.61108571    -0.17800
C12         C  0.58684818  0.39698803  0.57940170     0.05100
H13         H  0.64326309  0.42590128  0.69437352     0.18900
H14         H  0.67187628  0.38181453  0.60068914     0.19000
N15         N  0.87218690  0.46647285  0.88387165     0.02700
C16         C  0.82422379  0.44746979  0.90159685     0.05200
C17         C  0.82014070  0.39296068  0.89085961    -0.17600
C18         C  0.86725413  0.37804717  0.86543696    -0.17800
C19         C  0.89816272  0.42408677  0.86141679     0.05100
H20         H  0.78597274  0.36713855  0.89919281     0.18900
H21         H  0.87734659  0.33826330  0.85064962     0.19000
N22         N  0.45530517  0.83099251  0.97646036     0.02700
C23         C  0.46838245  0.78167062  0.99590210     0.05200
C24         C  0.45494049  0.77831993  0.04985528    -0.17600
C25         C  0.43249666  0.82718817  0.06389577    -0.17800
C26         C  0.43299070  0.85846620  0.01795586     0.05100
H27         H  0.45952869  0.74356661  0.07584775     0.18900
H28         H  0.41645300  0.83817215  0.10296068     0.19000
N29         N  0.18231734  0.51155133  0.02645119     0.02700
C30         C  0.23221351  0.53023177  0.01452279     0.05200
C31         C  0.23561385  0.58447978  0.02671701    -0.17600
C32         C  0.18612807  0.59951378  0.04710343    -0.17800
C33         C  0.15445976  0.55384196  0.04669351     0.05100
H34         H  0.27059479  0.61017408  0.02217608     0.18900
H35         H  0.17485689  0.63914855  0.06145333     0.19000
N36         N  0.59590485  0.13928146  0.93023539     0.02700
C37         C  0.58002304  0.18813236  0.91197012     0.05200
C38         C  0.59104194  0.19261299  0.85755504    -0.17600
C39         C  0.61465739  0.14475431  0.84197029    -0.17800
C40         C  0.61732181  0.11301667  0.88753112     0.05100
H41         H  0.58398052  0.22743162  0.83221350     0.18900
H42         H  0.62914164  0.13468083  0.80206565     0.19000
Zn43       Zn  0.57272306  0.44054065  0.90812515     1.49700
Zn44       Zn  0.47534625  0.52381692  0.90663508     1.49400
Zn45       Zn  0.48914931  0.43756390  0.00549691     1.49100
Zn46       Zn  0.57359237  0.53731520  0.99288619     1.49500
O47         O  0.52729265  0.48523330  0.95368365    -1.78000
O48         O  0.55333338  0.44698075  0.83023035    -0.68600
O49         O  0.39897824  0.50750912  0.93159578    -0.68400
O50         O  0.50827122  0.35709754  0.99483046    -0.68000
O51         O  0.48449064  0.50416830  0.82616434    -0.68600
O52         O  0.56667595  0.36261984  0.92710280    -0.68200
O53         O  0.40802605  0.44864168  0.99884526    -0.68800
O54         O  0.56108813  0.53074899  0.07391448    -0.68200
O55         O  0.48283647  0.60518224  0.91659157    -0.69000
O56         O  0.50509181  0.46108189  0.08242643    -0.68400
O57         O  0.54997958  0.61390829  0.97556649    -0.68800
O58         O  0.65438417  0.52726085  0.97475774    -0.68700
O59         O  0.65021056  0.46049741  0.91507205    -0.68500
C60         C  0.51828677  0.47278284  0.80336431     0.83300
C61         C  0.37887487  0.47863545  0.96902673     0.83800
C62         C  0.54030135  0.33503267  0.96112547     0.82700
C63         C  0.53215315  0.49967264  0.10281009     0.83100
C64         C  0.51304396  0.63427221  0.94626524     0.84200
C65         C  0.67712443  0.49439179  0.94230489     0.83300
N66         N  0.59189112  0.33421175  0.42890972     0.02700
C67         C  0.57674318  0.28511411  0.41083712     0.05200
C68         C  0.58785610  0.28054919  0.35643423    -0.17600
C69         C  0.61076756  0.32870609  0.34068328    -0.17800
C70         C  0.61289830  0.36061710  0.38616159     0.05100
H71         H  0.58108925  0.24560003  0.33115890     0.13700
H72         H  0.62498664  0.33892959  0.30071517     0.19000
N73         N  0.44986977  0.64456372  0.47570469     0.02700
C74         C  0.46460481  0.69299282  0.49614848     0.05200
C75         C  0.45253717  0.69521086  0.55048513    -0.17600
C76         C  0.42932637  0.64648667  0.56375722    -0.17800
C77         C  0.42794142  0.61648945  0.51697701     0.05100
H78         H  0.45878826  0.72902597  0.57732260     0.18900
H79         H  0.41429883  0.63467401  0.60296763     0.19000
N80         N  0.50142920  0.91469754  0.79745336     0.02700
C81         C  0.48098596  0.92947411  0.74903869     0.05200
C82         C  0.42664386  0.91743618  0.74682675    -0.17600
C83         C  0.41336850  0.89420230  0.79553922    -0.17800
C84         C  0.46015127  0.89277382  0.82552410     0.05100
H85         H  0.39980491  0.92372115  0.71302103     0.18900
H86         H  0.37414964  0.87918695  0.80735327     0.19000
N87         N  0.86937946  0.01300681  0.38529614     0.02700
C88         C  0.82027773  0.03109619  0.40041861     0.05200
C89         C  0.81572799  0.08549547  0.38928661    -0.17600
C90         C  0.86389886  0.10122575  0.36638846    -0.17800
C91         C  0.89580219  0.05574171  0.36428426     0.05100
H92         H  0.78078331  0.11077733  0.39603043     0.18900
H93         H  0.87413683  0.14118975  0.35215587     0.19000
N94         N  0.54819449  0.05671541  0.10779191     0.02700
C95         C  0.56627577  0.04161620  0.15689961     0.05200
C96         C  0.62067190  0.05275895  0.16145208    -0.17600
C97         C  0.63640984  0.07563929  0.11327664    -0.17800
C98         C  0.59093231  0.07772248  0.08136767     0.05100
H99         H  0.64594883  0.04603053  0.19640196     0.18900
H100        H  0.67637285  0.08987149  0.10303827     0.19000
N101        N  0.17971377  0.96622243  0.52731668     0.02700
C102        C  0.22815279  0.94580038  0.51257956     0.05200
C103        C  0.23039183  0.89146301  0.52463563    -0.17600
C104        C  0.18166844  0.87816856  0.54784156    -0.17800
C105        C  0.15165237  0.92493695  0.54923468     0.05100
H106        H  0.26421519  0.86464242  0.51838051     0.18900
H107        H  0.16987052  0.83895459  0.56285991     0.19000
Zn108      Zn  0.57143958  0.93769322  0.49203946     1.49700
Zn109      Zn  0.56921490  0.03406416  0.40796067     1.49400
Zn110      Zn  0.47283521  0.94999584  0.40571984     1.49100
Zn111      Zn  0.48512842  0.03631477  0.50433757     1.49500
O112        O  0.52411484  0.98897794  0.45305427    -1.78000
O113        O  0.65201778  0.94847971  0.47359086    -0.68600
O114        O  0.54975430  0.02858816  0.33062741    -0.68400
O115        O  0.48029736  0.86904717  0.41746468    -0.68000
O116        O  0.64654779  0.01459358  0.41343510    -0.68600
O117        O  0.54844442  0.86070352  0.47539780    -0.68200
O118        O  0.48362790  0.96844713  0.32514554    -0.68800
O119        O  0.40418151  0.02454620  0.49688707    -0.68200
O120        O  0.56373668  0.11139950  0.42741968    -0.69000
O121        O  0.39584450  0.96662900  0.42871908    -0.68400
O122        O  0.50356488  0.11689286  0.49352513    -0.68800
O123        O  0.50177098  0.01333434  0.58133252    -0.68700
O124        O  0.55967930  0.94515888  0.57298787    -0.68500
C125        C  0.67406304  0.98128322  0.44065254     0.83300
C126        C  0.51644169  0.00137926  0.30310687     0.83800
C127        C  0.51094652  0.84018914  0.44689304     0.82700
C128        C  0.37532742  0.99511977  0.46623135     0.83100
C129        C  0.53650869  0.13892658  0.46071746     0.84200
C130        C  0.53026059  0.97582338  0.60184684     0.83300
N131        N  0.09329735  0.33688068  0.97538476     0.02700
C132        C  0.07556565  0.28892389  0.99439577     0.05200
C133        C  0.08629599  0.28484759  0.04890583    -0.17600
C134        C  0.11171957  0.33195850  0.06380955    -0.17800
C135        C  0.11574899  0.36285960  0.01776772     0.05100
H136        H  0.07795462  0.25068918  0.07473152     0.18900
H137        H  0.12650338  0.34205833  0.10360327     0.19000
N138        N  0.37103460  0.00952605  0.02289694     0.02700
C139        C  0.32181898  0.02836051  0.00878209     0.05200
C140        C  0.31764259  0.08241697  0.02158811    -0.17600
C141        C  0.36598071  0.09722865  0.04459626    -0.17800
C142        C  0.39768915  0.05159044  0.04506557     0.05100
H143        H  0.28268996  0.10796756  0.01617401     0.18900
H144        H  0.37635914  0.13660868  0.06025971     0.19000
N145        N  0.04692012  0.06066464  0.30266765     0.02700
C146        C  0.06517657  0.04476281  0.25381712     0.05200
C147        C  0.11959401  0.05576023  0.24932229    -0.17600
C148        C  0.13518819  0.07938125  0.29717064    -0.17800
C149        C  0.08963320  0.08207123  0.32891823     0.05100
H150        H  0.14493204  0.04867904  0.21449763     0.18900
H151        H  0.17510819  0.09385554  0.30723494     0.19000
N152        N  0.95069329  0.64703777  0.93034811     0.02700
C153        C  0.96261773  0.69694109  0.91168736     0.05200
C154        C  0.95043328  0.70035979  0.85743993    -0.17600
C155        C  0.93005899  0.65087841  0.84238732    -0.17800
C156        C  0.93046495  0.61919313  0.88804607     0.05100
H157        H  0.95497522  0.73535140  0.83175767     0.18900
H158        H  0.91571702  0.63961821  0.80274004     0.19000
N159        N  0.68025592  0.96254462  0.87942929     0.02700
C160        C  0.72902831  0.94323680  0.89446807     0.05200
C161        C  0.73240486  0.88886783  0.88277919    -0.17600
C162        C  0.68402520  0.87443255  0.85948659    -0.17800
C163        C  0.65308138  0.92058470  0.85767172     0.05100
H164        H  0.76671253  0.86273029  0.88946571     0.18900
H165        H  0.67299883  0.83482758  0.84482175     0.19000
N166        N  0.00069461  0.92002690  0.61097731     0.02700
C167        C  0.98125105  0.93307245  0.66030935     0.05200
C168        C  0.92730341  0.91960703  0.66366822    -0.17600
C169        C  0.91327204  0.89718004  0.61478985    -0.17800
C170        C  0.95920808  0.89770803  0.58350159     0.05100
H171        H  0.90132105  0.92416726  0.69841658     0.18900
H172        H  0.87421292  0.88112544  0.60380718     0.19000
Zn173      Zn  0.06899709  0.03743853  0.00142076     1.49700
Zn174      Zn  0.97164673  0.95384934  0.00442166     1.49400
Zn175      Zn  0.98423542  0.03828103  0.90466204     1.49100
Zn176      Zn  0.07051614  0.94004746  0.91816037     1.49500
O177        O  0.02345141  0.99199295  0.95674177    -1.78000
O178        O  0.05000757  0.03141737  0.07934104    -0.68600
O179        O  0.89471130  0.96979048  0.98092349    -0.68400
O180        O  0.00236613  0.11907581  0.91468184    -0.68000
O181        O  0.98231782  0.97297650  0.08488403    -0.68600
O182        O  0.06205812  0.11491866  0.98143319    -0.68200
O183        O  0.90320841  0.02578123  0.91125098    -0.68800
O184        O  0.06057249  0.94753934  0.83679285    -0.68200
O185        O  0.97830278  0.87272613  0.99333678    -0.69000
O186        O  0.00155087  0.01464840  0.82807432    -0.68400
O187        O  0.04555171  0.86368009  0.93445860    -0.68800
O188        O  0.15098497  0.94918739  0.93782356    -0.68700
O189        O  0.14689277  0.01804023  0.99499857    -0.68500
C190        C  0.01600270  0.00502941  0.10693771     0.83300
C191        C  0.87431951  0.99684923  0.94233650     0.83800
C192        C  0.03482565  0.14182379  0.94753289     0.82700
C193        C  0.03087590  0.97772845  0.80770701     0.83100
C194        C  0.00811989  0.84357657  0.96333272     0.84200
C195        C  0.17377133  0.98298827  0.96920954     0.83300
N196        N  0.36622611  0.46552738  0.52185097     0.02700
C197        C  0.31690540  0.44606943  0.50879450     0.05200
C198        C  0.31356550  0.39212165  0.52225847    -0.17600
C199        C  0.36244142  0.37810200  0.54469568    -0.17800
C200        C  0.39371109  0.42404850  0.54417519     0.05100
H201        H  0.27882321  0.36612475  0.51769032     0.18900
H202        H  0.37343290  0.33905243  0.56074910     0.19000
N203        N  0.67452771  0.51172498  0.38121452     0.02700
C204        C  0.72337867  0.52997658  0.39711067     0.05200
C205        C  0.72787178  0.58439473  0.38611699    -0.17600
C206        C  0.68002088  0.59999597  0.36250493    -0.17800
C207        C  0.64827438  0.55444263  0.35981711     0.05100
H208        H  0.76269199  0.60972826  0.39319643     0.18900
H209        H  0.66995618  0.63991102  0.34804061     0.19000
N210        N  0.95427808  0.83582287  0.43241198     0.02700
C211        C  0.96839757  0.78661439  0.41355635     0.05200
C212        C  0.95559609  0.78245901  0.35949792    -0.17600
C213        C  0.93258510  0.83080584  0.34470741    -0.17800
C214        C  0.93211048  0.86249527  0.39036000     0.05100
H215        H  0.96101378  0.74752214  0.33393694     0.18900
H216        H  0.91692599  0.84119985  0.30533730     0.19000
N217        N  0.09773123  0.14503362  0.47937913     0.02700
C218        C  0.08269264  0.19381539  0.49866844     0.05200
C219        C  0.09435799  0.19720647  0.55304023    -0.17600
C220        C  0.11763581  0.14882438  0.56749617    -0.17800
C221        C  0.11946518  0.11786587  0.52135414     0.05100
H222        H  0.08766644  0.23152144  0.57916295     0.18900
H223        H  0.13228301  0.13780598  0.60710965     0.19000
N224        N  0.04684861  0.41540407  0.79482214     0.02700
C225        C  0.06551816  0.42733359  0.74492173     0.05200
C226        C  0.11976435  0.41513584  0.74150208    -0.17600
C227        C  0.13480778  0.39474718  0.79098002    -0.17800
C228        C  0.08914305  0.39515886  0.82266399     0.05100
H229        H  0.14545320  0.41967917  0.70651190     0.18900
H230        H  0.17444543  0.38039644  0.80223716     0.19000
N231        N  0.00174365  0.55798882  0.10499601     0.02700
C232        C  0.98274236  0.54026624  0.15296046     0.05200
C233        C  0.92823240  0.55099969  0.15704997    -0.17600
C234        C  0.91331942  0.57641685  0.10994010    -0.17800
C235        C  0.95935628  0.58043934  0.07902598     0.05100
H236        H  0.90241100  0.54266786  0.19122152     0.18900
H237        H  0.87352290  0.59120607  0.09985015     0.19000
Zn238      Zn  0.97277235  0.43643364  0.48802972     1.49700
Zn239      Zn  0.05903187  0.53529102  0.50183033     1.49400
Zn240      Zn  0.07254347  0.44901189  0.40359413     1.49100
Zn241      Zn  0.97577885  0.53378110  0.40444400     1.49500
O242        O  0.02045682  0.48823145  0.44988508    -1.78000
O243        O  0.98386271  0.44307524  0.56915227    -0.68600
O244        O  0.14040041  0.52535049  0.49432582    -0.68400
O245        O  0.06595729  0.36798738  0.41609961    -0.68000
O246        O  0.04274187  0.51031585  0.57819778    -0.68600
O247        O  0.99626785  0.35949905  0.47207847    -0.68200
O248        O  0.14913289  0.46633092  0.42721436    -0.68800
O249        O  0.99576126  0.52682715  0.32696323    -0.68200
O250        O  0.03935881  0.61576072  0.49269808    -0.69000
O251        O  0.06251185  0.46712625  0.32279928    -0.68400
O252        O  0.98220239  0.61167684  0.42383693    -0.68800
O253        O  0.89785688  0.51480301  0.41047087    -0.68700
O254        O  0.89230849  0.44711346  0.46890953    -0.68500
C255        C  0.01387087  0.47288271  0.59830067     0.83300
C256        C  0.16949359  0.49565751  0.46413331     0.83800
C257        C  0.03486165  0.33910293  0.44502502     0.82700
C258        C  0.02965580  0.49958343  0.30005437     0.83100
C259        C  0.00798111  0.63855140  0.45889413     0.84200
C260        C  0.87025721  0.48080046  0.43685749     0.83300
C261        C  0.01406706  0.51918789  0.19746994    -0.07100
C262        C  0.02838020  0.50623782  0.24228890    -0.08700
C263        C  0.03461030  0.44688544  0.69935930    -0.07100
C264        C  0.01953578  0.46077301  0.65501817    -0.08700
C265        C  0.06157929  0.23873268  0.46786712    -0.07100
C266        C  0.04696645  0.28253596  0.45196233    -0.08700
C267        C  0.98854778  0.74148247  0.44452301    -0.07100
C268        C  0.00098249  0.69629939  0.45810455    -0.08700
C269        C  0.76787018  0.49803762  0.41728999    -0.07100
C270        C  0.81255039  0.48299253  0.42988439    -0.08700
C271        C  0.22651590  0.49085870  0.47521070    -0.07100
C272        C  0.27117620  0.47637399  0.48870500    -0.08700
C273        C  0.96206002  0.87489716  0.52997041    -0.07100
C274        C  0.95973338  0.85575722  0.48525064    -0.08700
C275        C  0.01156955  0.95315526  0.70603047    -0.07100
C276        C  0.02606852  0.96664679  0.75068639    -0.08700
C277        C  0.77395017  0.97401910  0.91560149    -0.07100
C278        C  0.81775341  0.98991293  0.93022611    -0.08700
C279        C  0.95747010  0.62683563  0.98290514    -0.07100
C280        C  0.96101966  0.60635086  0.02692265    -0.08700
C281        C  0.98215082  0.74250773  0.94260311    -0.07100
C282        C  0.99602404  0.78685494  0.95767623    -0.08700
C283        C  0.08852537  0.10597697  0.38198986    -0.07100
C284        C  0.09181433  0.12528878  0.42654995    -0.08700
C285        C  0.01819266  0.01199786  0.16464473    -0.07100
C286        C  0.03323920  0.02458625  0.20932538    -0.08700
C287        C  0.23151922  0.98378314  0.97620333    -0.07100
C288        C  0.27669943  0.99737496  0.98863430    -0.08700
C289        C  0.08730463  0.37444351  0.87708479    -0.07100
C290        C  0.08937397  0.35647724  0.92229593    -0.08700
C291        C  0.04150025  0.19958859  0.94879084    -0.07100
C292        C  0.05446930  0.24441030  0.96308449    -0.08700
C293        C  0.14259590  0.06445975  0.51907765    -0.07100
C294        C  0.16117429  0.01953033  0.52168592    -0.08700
C295        C  0.09840719  0.92842774  0.57257382    -0.07100
C296        C  0.05367486  0.92607423  0.59164980    -0.08700
C297        C  0.27396537  0.97538948  0.49171858    -0.07100
C298        C  0.31844271  0.98971473  0.47754400    -0.08700
C299        C  0.45095702  0.04960638  0.06822256    -0.07100
C300        C  0.49553295  0.05198054  0.08747219    -0.08700
C301        C  0.51868383  0.00839214  0.24551072    -0.07100
C302        C  0.53418840  0.02129016  0.20112946    -0.08700
C303        C  0.90894842  0.91576264  0.39236775    -0.07100
C304        C  0.88969640  0.96034051  0.39001230    -0.08700
C305        C  0.94926639  0.05451307  0.34146274    -0.07100
C306        C  0.99406939  0.05660592  0.32267648    -0.08700
C307        C  0.77604540  0.99901373  0.42074569    -0.07100
C308        C  0.73166111  0.98351637  0.43364247    -0.08700
C309        C  0.59967926  0.92288477  0.83453877    -0.07100
C310        C  0.55474664  0.92030160  0.81596878    -0.08700
C311        C  0.52486572  0.96452159  0.65873492    -0.07100
C312        C  0.51055760  0.95034513  0.70321768    -0.08700
C313        C  0.40460503  0.56324706  0.51346503    -0.07100
C314        C  0.38553671  0.51851274  0.51580882    -0.08700
C315        C  0.48547039  0.73881708  0.46658178    -0.07100
C316        C  0.49964294  0.78330150  0.45227921    -0.08700
C317        C  0.65451896  0.45887584  0.38527413    -0.07100
C318        C  0.63573043  0.41407548  0.38737135    -0.08700
C319        C  0.55641087  0.24089883  0.44293967    -0.07100
C320        C  0.54351246  0.19652405  0.45846086    -0.08700
C321        C  0.59182397  0.11928751  0.98308802    -0.07100
C322        C  0.58971468  0.10051822  0.02789522    -0.08700
C323        C  0.64121909  0.05994168  0.88865003    -0.07100
C324        C  0.66052446  0.01537831  0.88535945    -0.08700
C325        C  0.54726290  0.27732401  0.95893786    -0.07100
C326        C  0.55984703  0.23263729  0.94389804    -0.08700
C327        C  0.14165561  0.41496631  0.01610181    -0.07100
C328        C  0.16213077  0.45898869  0.01966077    -0.08700
C329        C  0.05483026  0.55406331  0.08538808    -0.07100
C330        C  0.10003989  0.55199416  0.06741372    -0.08700
C331        C  0.27779352  0.49933326  0.99498645    -0.07100
C332        C  0.32214930  0.48427689  0.98111680    -0.08700
C333        C  0.46366214  0.86940509  0.87875184    -0.07100
C334        C  0.46132872  0.85031793  0.92347839    -0.08700
C335        C  0.41015186  0.91198473  0.01510925    -0.07100
C336        C  0.39099086  0.95669546  0.01743816    -0.08700
C337        C  0.48846928  0.73595041  0.96557726    -0.07100
C338        C  0.50196435  0.69129378  0.95107639    -0.08700
C339        C  0.89178802  0.51955994  0.88779958    -0.07100
C340        C  0.90975458  0.56477065  0.88987480    -0.08700
C341        C  0.95026934  0.42574909  0.83550656    -0.07100
C342        C  0.99428972  0.42219238  0.81502356    -0.08700
C343        C  0.73488982  0.49310534  0.93564060    -0.07100
C344        C  0.77971012  0.47879207  0.92268355    -0.08700
C345        C  0.49195015  0.42459608  0.58614370    -0.07100
C346        C  0.44723409  0.42691448  0.56699789    -0.08700
C347        C  0.58484318  0.37381055  0.52614263    -0.07100
C348        C  0.58719065  0.35454430  0.48157104    -0.08700
C349        C  0.51908067  0.46580744  0.74561427    -0.07100
C350        C  0.53266417  0.45339781  0.70042352    -0.08700
C351        C  0.55063948  0.55665124  0.31661771    -0.07100
C352        C  0.59519949  0.55334474  0.33592319    -0.08700
C353        C  0.45812311  0.60747316  0.37745621    -0.07100
C354        C  0.45551057  0.62604227  0.42239018    -0.08700
C355        C  0.52521562  0.51179787  0.15937476    -0.07100
C356        C  0.50931544  0.52642923  0.20317676    -0.08700
loop_ 
_geom_bond_atom_site_label_1 
_geom_bond_atom_site_label_2 
_geom_bond_distance 
_geom_bond_site_symmetry_2 
_ccdc_geom_bond_type 
N1            C5   1.353       .  A
N1            C2   1.354       .  A
N1          C351   1.408       .  S
C2            C3   1.383       .  A
C2          C356   1.450       .  S
C3            C4   1.380       .  A
C3            H6   1.083       .  S
C4            C5   1.380       .  A
C4            H7   1.083       .  S
C5          C353   1.446       .  S
N8           C12   1.353       .  A
N8            C9   1.354       .  A
N8          C345   1.408       .  S
C9           C10   1.383       .  A
C9          C350   1.448       .  S
C10          C11   1.379       .  A
C10          H13   1.083       .  S
C11          C12   1.379       .  A
C11          H14   1.083       .  S
C12         C347   1.443       .  S
N15          C19   1.354       .  A
N15          C16   1.354       .  A
N15         C339   1.408       .  S
C16          C17   1.383       .  A
C16         C344   1.449       .  S
C17          C18   1.379       .  A
C17          H20   1.083       .  S
C18          C19   1.380       .  A
C18          H21   1.083       .  S
C19         C341   1.445       .  S
N22          C26   1.354   1_556  A
N22          C23   1.355       .  A
N22         C334   1.408       .  S
C23          C24   1.383   1_556  A
C23         C337   1.450       .  S
C24          C25   1.379       .  A
C24          H27   1.083       .  S
C25          C26   1.380       .  A
C25          H28   1.083       .  S
C26         C335   1.446       .  S
N29          C33   1.354       .  A
N29          C30   1.355       .  A
N29         C328   1.408       .  S
C30          C31   1.383       .  A
C30         C331   1.450   1_554  S
C31          C32   1.380       .  A
C31          H34   1.083       .  S
C32          C33   1.380       .  A
C32          H35   1.083       .  S
C33         C330   1.446       .  S
N36          C40   1.353       .  A
N36          C37   1.353       .  A
N36         C321   1.406       .  S
C37          C38   1.383       .  A
C37         C326   1.449       .  S
C38          C39   1.380       .  A
C38          H41   1.083       .  S
C39          C40   1.380       .  A
C39          H42   1.083       .  S
C40         C323   1.445       .  S
Zn43         O47   1.944       .  S
Zn43         O48   1.999       .  S
Zn43         O52   1.996       .  S
Zn43         O59   1.994       .  S
Zn44         O47   1.986       .  S
Zn44         O49   2.035       .  S
Zn44         O51   2.069       .  S
Zn44         O55   2.043       .  S
Zn45         O47   1.988   1_554  S
Zn45         O50   2.070   1_554  S
Zn45         O53   2.039   1_554  S
Zn45         O56   2.036       .  S
Zn46         O47   1.985       .  S
Zn46         O54   2.042   1_556  S
Zn46         O57   2.035       .  S
Zn46         O58   2.070       .  S
O48          C60   1.270       .  A
O49          C61   1.275       .  A
O50          C62   1.277       .  A
O51          C60   1.277       .  A
O52          C62   1.269       .  A
O53          C61   1.275       .  A
O54          C63   1.275       .  A
O55          C64   1.275       .  A
O56          C63   1.275       .  A
O57          C64   1.275       .  A
O58          C65   1.278       .  A
O59          C65   1.269       .  A
C60         C349   1.444       .  S
C61         C332   1.446       .  S
C62         C325   1.444       .  S
C63         C355   1.446       .  S
C64         C338   1.447       .  S
C65         C343   1.444       .  S
N66          C70   1.352       .  A
N66          C67   1.352       .  A
N66         C348   1.406       .  S
C67          C68   1.383       .  A
C67         C319   1.447       .  S
C68          C69   1.380       .  A
C68          H71   1.084       .  S
C69          C70   1.380       .  A
C69          H72   1.083       .  S
C70         C318   1.443       .  S
N73          C77   1.353       .  A
N73          C74   1.355       .  A
N73         C354   1.408       .  S
C74          C75   1.383       .  A
C74         C315   1.449       .  S
C75          C76   1.380       .  A
C75          H78   1.083       .  S
C76          C77   1.380       .  A
C76          H79   1.083       .  S
C77         C313   1.446       .  S
N80          C84   1.353       .  A
N80          C81   1.355       .  A
N80         C310   1.408       .  S
C81          C82   1.383       .  A
C81         C312   1.449       .  S
C82          C83   1.380       .  A
C82          H85   1.083       .  S
C83          C84   1.380       .  A
C83          H86   1.083       .  S
C84         C333   1.446       .  S
N87          C91   1.352       .  A
N87          C88   1.352       .  A
N87         C304   1.406   1_545  S
C88          C89   1.383       .  A
C88         C307   1.447   1_545  S
C89          C90   1.380       .  A
C89          H92   1.084       .  S
C90          C91   1.380       .  A
C90          H93   1.083       .  S
C91         C305   1.443       .  S
N94          C98   1.352       .  A
N94          C95   1.352       .  A
N94         C300   1.406       .  S
C95          C96   1.383       .  A
C95         C302   1.447       .  S
C96          C97   1.380       .  A
C96          H99   1.084       .  S
C97          C98   1.380       .  A
C97         H100   1.083       .  S
C98         C322   1.443       .  S
N101        C105   1.353       .  A
N101        C102   1.355       .  A
N101        C294   1.408   1_565  S
C102        C103   1.383       .  A
C102        C297   1.449       .  S
C103        C104   1.380       .  A
C103        H106   1.083       .  S
C104        C105   1.380       .  A
C104        H107   1.083       .  S
C105        C295   1.446       .  S
Zn108       O112   1.984       .  S
Zn108       O113   2.069       .  S
Zn108       O117   2.037       .  S
Zn108       O124   2.039       .  S
Zn109       O112   1.939   1_545  S
Zn109       O114   1.984       .  S
Zn109       O116   1.984       .  S
Zn109       O120   1.984       .  S
Zn110       O112   1.984       .  S
Zn110       O115   2.039       .  S
Zn110       O118   2.069       .  S
Zn110       O121   2.037       .  S
Zn111       O112   1.984   1_545  S
Zn111       O119   2.039       .  S
Zn111       O122   2.069       .  S
Zn111       O123   2.037       .  S
O113        C125   1.277       .  A
O114        C126   1.267       .  A
O115        C127   1.275       .  A
O116        C125   1.267   1_545  A
O117        C127   1.275       .  A
O118        C126   1.277   1_565  A
O119        C128   1.275   1_545  A
O120        C129   1.267       .  A
O121        C128   1.275       .  A
O122        C129   1.277       .  A
O123        C130   1.275   1_545  A
O124        C130   1.275       .  A
C125        C308   1.441       .  S
C126        C301   1.441       .  S
C127        C316   1.446       .  S
C128        C298   1.446       .  S
C129        C320   1.441       .  S
C130        C311   1.446       .  S
N131        C135   1.354   1_556  A
N131        C132   1.354       .  A
N131        C290   1.408       .  S
C132        C133   1.383   1_556  A
C132        C292   1.449       .  S
C133        C134   1.379       .  A
C133        H136   1.083       .  S
C134        C135   1.380       .  A
C134        H137   1.083       .  S
C135        C327   1.445       .  S
N138        C142   1.353       .  A
N138        C139   1.354       .  A
N138        C336   1.408   1_545  S
C139        C140   1.383       .  A
C139        C288   1.448   1_544  S
C140        C141   1.379       .  A
C140        H143   1.083       .  S
C141        C142   1.379       .  A
C141        H144   1.083       .  S
C142        C299   1.443       .  S
N145        C149   1.353       .  A
N145        C146   1.353       .  A
N145        C306   1.406   1_455  S
C146        C147   1.383       .  A
C146        C286   1.449       .  S
C147        C148   1.380       .  A
C147        H150   1.083       .  S
C148        C149   1.380       .  A
C148        H151   1.083       .  S
C149        C283   1.445       .  S
N152        C156   1.354       .  A
N152        C153   1.355       .  A
N152        C279   1.408       .  S
C153        C154   1.383       .  A
C153        C281   1.450       .  S
C154        C155   1.380       .  A
C154        H157   1.083       .  S
C155        C156   1.380       .  A
C155        H158   1.083       .  S
C156        C340   1.446       .  S
N159        C163   1.353       .  A
N159        C160   1.354       .  A
N159        C324   1.408   1_565  S
C160        C161   1.383       .  A
C160        C277   1.450       .  S
C161        C162   1.380       .  A
C161        H164   1.083       .  S
C162        C163   1.380       .  A
C162        H165   1.083       .  S
C163        C309   1.446       .  S
N166        C170   1.354   1_455  A
N166        C167   1.355   1_455  A
N166        C296   1.408       .  S
C167        C168   1.383       .  A
C167        C275   1.450   1_655  S
C168        C169   1.380       .  A
C168        H171   1.083       .  S
C169        C170   1.380       .  A
C169        H172   1.083       .  S
C170        C273   1.446       .  S
Zn173       O177   1.944   1_544  S
Zn173       O178   1.996       .  S
Zn173       O182   1.994   1_554  S
Zn173       O189   1.999   1_554  S
Zn174       O177   1.988   1_654  S
Zn174       O179   2.036   1_554  S
Zn174       O181   2.070       .  S
Zn174       O185   2.039   1_554  S
Zn175       O177   1.985   1_645  S
Zn175       O180   2.070   1_655  S
Zn175       O183   2.042       .  S
Zn175       O186   2.035   1_655  S
Zn176       O177   1.986       .  S
Zn176       O184   2.043       .  S
Zn176       O187   2.035       .  S
Zn176       O188   2.069       .  S
O178        C190   1.269       .  A
O179        C191   1.275       .  A
O180        C192   1.278       .  A
O181        C190   1.277   1_665  A
O182        C192   1.269       .  A
O183        C191   1.275   1_545  A
O184        C193   1.275       .  A
O185        C194   1.275   1_655  A
O186        C193   1.275   1_545  A
O187        C194   1.275       .  A
O188        C195   1.277       .  A
O189        C195   1.269   1_545  A
C190        C285   1.444       .  S
C191        C278   1.446       .  S
C192        C291   1.444       .  S
C193        C276   1.447       .  S
C194        C282   1.446   1_455  S
C195        C287   1.444       .  S
N196        C200   1.354       .  A
N196        C197   1.355       .  A
N196        C314   1.408       .  S
C197        C198   1.383       .  A
C197        C272   1.450       .  S
C198        C199   1.380       .  A
C198        H201   1.083       .  S
C199        C200   1.380       .  A
C199        H202   1.083       .  S
C200        C346   1.446       .  S
N203        C207   1.353       .  A
N203        C204   1.353       .  A
N203        C317   1.406       .  S
C204        C205   1.383       .  A
C204        C269   1.449       .  S
C205        C206   1.380       .  A
C205        H208   1.083       .  S
C206        C207   1.380       .  A
C206        H209   1.083       .  S
C207        C352   1.445       .  S
N210        C214   1.353       .  A
N210        C211   1.354       .  A
N210        C274   1.408       .  S
C211        C212   1.383       .  A
C211        C267   1.448       .  S
C212        C213   1.379       .  A
C212        H215   1.083       .  S
C213        C214   1.379       .  A
C213        H216   1.083       .  S
C214        C303   1.443       .  S
N217        C221   1.353       .  A
N217        C218   1.354       .  A
N217        C284   1.408       .  S
C218        C219   1.383       .  A
C218        C265   1.450       .  S
C219        C220   1.380       .  A
C219        H222   1.083       .  S
C220        C221   1.380       .  A
C220        H223   1.083       .  S
C221        C293   1.446       .  S
N224        C228   1.354       .  A
N224        C225   1.355       .  A
N224        C342   1.408   1_455  S
C225        C226   1.383       .  A
C225        C263   1.450       .  S
C226        C227   1.380       .  A
C226        H229   1.083       .  S
C227        C228   1.380       .  A
C227        H230   1.083       .  S
C228        C289   1.446       .  S
N231        C235   1.354   1_455  A
N231        C232   1.354   1_455  A
N231        C329   1.408       .  S
C232        C233   1.383       .  A
C232        C261   1.449   1_655  S
C233        C234   1.379       .  A
C233        H236   1.083       .  S
C234        C235   1.380       .  A
C234        H237   1.083       .  S
C235        C280   1.445       .  S
Zn238       O242   1.988   1_655  S
Zn238       O243   2.039       .  S
Zn238       O247   2.035       .  S
Zn238       O254   2.070       .  S
Zn239       O242   1.986       .  S
Zn239       O244   2.043       .  S
Zn239       O246   2.035       .  S
Zn239       O250   2.069       .  S
Zn240       O242   1.985       .  S
Zn240       O245   2.042       .  S
Zn240       O248   2.035       .  S
Zn240       O251   2.070       .  S
Zn241       O242   1.944   1_655  S
Zn241       O249   1.994       .  S
Zn241       O252   1.999       .  S
Zn241       O253   1.996       .  S
O243        C255   1.275   1_655  A
O244        C256   1.275       .  A
O245        C257   1.275       .  A
O246        C255   1.275       .  A
O247        C257   1.275   1_655  A
O248        C256   1.275       .  A
O249        C258   1.269   1_655  A
O250        C259   1.277       .  A
O251        C258   1.278       .  A
O252        C259   1.269   1_655  A
O253        C260   1.269       .  A
O254        C260   1.277       .  A
C255        C264   1.446       .  S
C256        C271   1.447       .  S
C257        C266   1.446       .  S
C258        C262   1.444       .  S
C259        C268   1.444       .  S
C260        C270   1.444       .  S
C261        C262   1.211       .  T
C263        C264   1.213       .  T
C265        C266   1.212       .  T
C267        C268   1.211   1_655  T
C269        C270   1.211       .  T
C271        C272   1.213       .  T
C273        C274   1.209       .  T
C275        C276   1.213       .  T
C277        C278   1.212       .  T
C279        C280   1.208   1_556  T
C281        C282   1.213       .  T
C283        C284   1.208       .  T
C285        C286   1.211       .  T
C287        C288   1.211       .  T
C289        C290   1.209       .  T
C291        C292   1.211       .  T
C293        C294   1.209       .  T
C295        C296   1.208       .  T
C297        C298   1.212       .  T
C299        C300   1.207       .  T
C301        C302   1.210       .  T
C303        C304   1.207       .  T
C305        C306   1.207       .  T
C307        C308   1.210       .  T
C309        C310   1.209       .  T
C311        C312   1.212       .  T
C313        C314   1.209       .  T
C315        C316   1.212       .  T
C317        C318   1.207       .  T
C319        C320   1.210       .  T
C321        C322   1.207   1_556  T
C323        C324   1.208       .  T
C325        C326   1.211       .  T
C327        C328   1.208       .  T
C329        C330   1.209       .  T
C331        C332   1.213       .  T
C333        C334   1.209       .  T
C335        C336   1.209       .  T
C337        C338   1.213       .  T
C339        C340   1.209       .  T
C341        C342   1.208       .  T
C343        C344   1.211       .  T
C345        C346   1.209       .  T
C347        C348   1.207       .  T
C349        C350   1.211       .  T
C351        C352   1.208       .  T
C353        C354   1.209       .  T
C355        C356   1.212       .  T
