geometry optimzed in LAMMPS
_audit_creation_date              2020-12-01 
_audit_creation_method            'lammps2cif' 
_symmetry_space_group_name_H-M    'P1' 
_symmetry_Int_Tables_number       1 
_symmetry_cell_setting            triclinic 
loop_ 
_symmetry_equiv_pos_as_xyz 
  x,y,z 
_cell_length_a                    28.96984284 
_cell_length_b                    28.786336525557 
_cell_length_c                    22.396039334995848 
_cell_angle_alpha                 89.62349964611978 
_cell_angle_beta                  90.05866343287194 
_cell_angle_gamma                 121.21728580582503 
loop_ 
_atom_site_label 
_atom_site_type_symbol 
_atom_site_fract_x 
_atom_site_fract_y 
_atom_site_fract_z 
_atom_site_charge 
C1          C  0.40489137  0.90372918  0.07327593    -0.08600
C2          C  0.43447789  0.88400275  0.10097246    -0.02400
C3          C  0.48842781  0.90291664  0.08621513    -0.08600
C4          C  0.51401535  0.94428711  0.04222717     0.12400
C5          C  0.48470893  0.96582053  0.01434496    -0.00300
C6          C  0.43005249  0.94581985  0.03040183     0.12200
C7          C  0.40219929  0.96818102  0.00311441    -0.10400
C8          C  0.42751941  0.00984800  0.96082895    -0.10400
C9          C  0.48111306  0.02950378  0.94289023     0.12200
C10         C  0.50992930  0.00696080  0.96977614    -0.00300
C11         C  0.56760097  0.96392432  0.02444108    -0.10500
C12         C  0.59210391  0.00378044  0.98024167    -0.10500
C13         C  0.56401033  0.02560019  0.95236099     0.12400
C14         C  0.58843894  0.06564659  0.90736801    -0.08600
C15         C  0.55930118  0.08650275  0.88079069    -0.02400
C16         C  0.50709424  0.07127880  0.89922990    -0.08600
H17         H  0.36068021  0.95395031  0.01484238     0.09700
H18         H  0.40436340  0.02615008  0.94211915     0.09700
H19         H  0.59095556  0.94813979  0.04392090     0.09800
H20         H  0.63334635  0.01733532  0.96787652     0.09800
H21         H  0.41466759  0.85339680  0.13564290     0.06300
H22         H  0.57822905  0.11549969  0.84449100     0.06300
O23         O  0.46939590  0.76768902  0.21722387    -0.72100
O24         O  0.50289038  0.70222054  0.34451476    -0.72200
O25         O  0.49862990  0.79284006  0.33287992    -0.72200
O26         O  0.47487558  0.67756806  0.23013217    -0.72300
O27         O  0.56003028  0.72522908  0.19755576    -0.72200
O28         O  0.58587697  0.83908937  0.30790531    -0.72200
O29         O  0.58880438  0.74438248  0.31441726    -0.72200
O30         O  0.55625273  0.81819804  0.19133127    -0.75800
Ni31       Ni  0.48357309  0.73371652  0.28206931     1.25400
Ni32       Ni  0.57616862  0.78365912  0.25199944     1.25400
C33         C  0.50663048  0.80360471  0.18363547     0.90000
C34         C  0.55034337  0.71011226  0.34863555     0.90000
C35         C  0.54600635  0.83484991  0.33766322     0.90000
C36         C  0.51308452  0.68198130  0.19730665     0.90200
O37         O  0.40458227  0.24385593  0.70071677    -0.72100
O38         O  0.44386867  0.16509630  0.80862568    -0.72200
O39         O  0.43057721  0.25258221  0.81809532    -0.72200
O40         O  0.41928330  0.15687211  0.69066254    -0.72300
O41         O  0.50584952  0.21515196  0.66827896    -0.72200
O42         O  0.51767943  0.30722327  0.79498761    -0.72200
O43         O  0.53052003  0.22190431  0.78543838    -0.72200
O44         O  0.49161366  0.29965163  0.67830160    -0.72200
Ni45       Ni  0.42120989  0.20240346  0.75526862     1.25400
Ni46       Ni  0.51427213  0.26281659  0.73093189     1.25400
C47         C  0.44194871  0.28522750  0.67258321     0.90000
C48         C  0.49391478  0.18085893  0.81458530     0.90000
C49         C  0.47669025  0.29573654  0.82705317     0.90000
C50         C  0.46154627  0.17078872  0.65898426     0.90200
O51         O  0.83532487  0.28015450  0.80870552    -0.72100
O52         O  0.74596861  0.16337225  0.69891592    -0.72200
O53         O  0.83078241  0.26929366  0.68699703    -0.72200
O54         O  0.75170317  0.17478862  0.81999631    -0.72300
O55         O  0.69396119  0.20411977  0.81497846    -0.72200
O56         O  0.77086979  0.29584837  0.68313366    -0.72200
O57         O  0.68870379  0.19322941  0.69507457    -0.72200
O58         O  0.77525001  0.30642499  0.80323084    -0.72200
Ni59       Ni  0.79325717  0.22081685  0.75360895     1.25400
Ni60       Ni  0.73033780  0.25083451  0.74883348     1.25400
C61         C  0.81853831  0.31171246  0.82477439     0.90000
C62         C  0.70228685  0.15934012  0.67936426     0.90000
C63         C  0.81358164  0.29838799  0.66364886     0.90000
C64         C  0.71012132  0.17484660  0.83950288     0.90200
O65         O  0.29599863  0.80974350  0.31343525    -0.72100
O66         O  0.19637080  0.72072141  0.19483487    -0.72200
O67         O  0.29276760  0.81375951  0.19298484    -0.72200
O68         O  0.19961880  0.71779775  0.31481109    -0.72300
O69         O  0.15741322  0.76411464  0.32037029    -0.72200
O70         O  0.25334574  0.86268435  0.19926926    -0.72200
O71         O  0.15411985  0.76696549  0.19980463    -0.72200
O72         O  0.25631684  0.85836146  0.32055959    -0.72200
Ni73       Ni  0.24761279  0.76401482  0.25370750     1.25400
Ni74       Ni  0.20384733  0.81496466  0.26006078     1.25400
C75         C  0.29248692  0.84800197  0.33730322     0.90000
C76         C  0.15810564  0.72780212  0.17866470     0.90000
C77         C  0.28899557  0.85435944  0.17648489     0.90000
C78         C  0.16295535  0.72469149  0.33728145     0.90200
C79         C  0.92351134  0.43744593  0.91132270    -0.08600
C80         C  0.90361053  0.47104329  0.89523962    -0.02400
C81         C  0.92149099  0.52102042  0.92221488    -0.08600
C82         C  0.96443701  0.54145212  0.96314009     0.12400
C83         C  0.98504569  0.50821071  0.98106342    -0.00300
C84         C  0.96393084  0.45562653  0.95595032     0.12200
C85         C  0.98284722  0.42245777  0.97728518    -0.10400
C86         C  0.02159389  0.44030799  0.02242203    -0.10400
C87         C  0.04408083  0.49262201  0.04651010     0.12200
C88         C  0.02634000  0.52738532  0.02481478    -0.00300
C89         C  0.98755842  0.59417597  0.98602099    -0.10500
C90         C  0.03111693  0.61460249  0.02518957    -0.10500
C91         C  0.05054494  0.58168926  0.04580583     0.12400
C92         C  0.09417572  0.60152393  0.08603907    -0.08600
C93         C  0.10937139  0.56614247  0.10878914    -0.02400
C94         C  0.08507353  0.51198648  0.09034518    -0.08600
H95         H  0.96718826  0.38201174  0.95988557     0.09700
H96         H  0.03459351  0.41310780  0.03755823     0.09700
H97         H  0.97314090  0.62057652  0.97221551     0.09800
H98         H  0.04879632  0.65610155  0.03993573     0.09800
H99         H  0.87237604  0.45767147  0.86158472     0.06300
H100        H  0.14170400  0.58160121  0.14137178     0.06300
C101        C  0.92501292  0.42286590  0.58640072    -0.08600
C102        C  0.90821470  0.45673117  0.61010285    -0.02400
C103        C  0.93298254  0.51168889  0.59497158    -0.08600
C104        C  0.97778564  0.53476282  0.55585389     0.12400
C105        C  0.99515995  0.50115301  0.53018793    -0.00300
C106        C  0.96889029  0.44506454  0.54567581     0.12200
C107        C  0.98674105  0.41282458  0.51943616    -0.10400
C108        C  0.02944969  0.43497384  0.47845944    -0.10400
C109        C  0.05608796  0.49025340  0.46241179     0.12200
C110        C  0.03897466  0.52381350  0.48901214    -0.00300
C111        C  0.00529751  0.59030425  0.54133350    -0.10500
C112        C  0.04893867  0.61273861  0.50200404    -0.10500
C113        C  0.06591352  0.58019901  0.47493292     0.12400
C114        C  0.10961722  0.60246762  0.43453769    -0.08600
C115        C  0.12492126  0.56897634  0.40789150    -0.02400
C116        C  0.10002335  0.51350167  0.42144591    -0.08600
H117        H  0.96745929  0.36999145  0.53009961     0.09700
H118        H  0.04166120  0.40840094  0.45972985     0.09700
H119        H  0.99328975  0.61692930  0.56043331     0.09800
H120        H  0.06910106  0.65585627  0.49263284     0.09800
H121        H  0.87575428  0.44030289  0.64273499     0.06300
H122        H  0.15689920  0.58696590  0.37473633     0.06300
O123        O  0.31853111  0.50358973  0.29485253    -0.72100
O124        O  0.23209401  0.52566258  0.18472422    -0.72200
O125        O  0.24137751  0.52884283  0.30520892    -0.72200
O126        O  0.30761771  0.49935844  0.17593899    -0.72300
O127        O  0.24647104  0.41080368  0.18382496    -0.72200
O128        O  0.17540640  0.44176786  0.30987452    -0.72200
O129        O  0.16808986  0.43778922  0.18789518    -0.72200
O130        O  0.25455221  0.41617660  0.30521433    -0.72200
Ni131      Ni  0.27681740  0.51726614  0.24012094     1.25400
Ni132      Ni  0.20859112  0.42321756  0.24694158     1.25400
C133        C  0.30171872  0.45665971  0.31756400     0.90000
C134        C  0.18694438  0.48608163  0.16693566     0.90000
C135        C  0.19756244  0.49073095  0.32862627     0.90000
C136        C  0.28876821  0.45033167  0.15930279     0.90200
O137        O  0.84015007  0.59417516  0.79766865    -0.72100
O138        O  0.72228331  0.54939889  0.68747425    -0.72200
O139        O  0.73426238  0.56948086  0.80668177    -0.72200
O140        O  0.82673810  0.57265374  0.67898930    -0.72300
O141        O  0.79804793  0.48568324  0.69869020    -0.72200
O142        O  0.70878932  0.48306770  0.82448827    -0.72200
O143        O  0.69582183  0.46283772  0.70622621    -0.72200
O144        O  0.81151708  0.50709051  0.81649045    -0.72200
Ni145      Ni  0.78194040  0.57480029  0.74220308     1.25400
Ni146      Ni  0.75264103  0.48184322  0.76221514     1.25400
C147        C  0.84562482  0.55770346  0.82412942     0.90000
C148        C  0.68980818  0.49849714  0.67878577     0.90000
C149        C  0.70551664  0.52469441  0.83573739     0.90000
C150        C  0.82690328  0.52894518  0.66810721     0.90200
C151        C  0.48535591  0.58477190  0.06794307    -0.08600
C152        C  0.42927088  0.55408517  0.07612262    -0.02400
C153        C  0.39729512  0.50256189  0.05199989    -0.08600
C154        C  0.42112286  0.48097030  0.01554425     0.12400
C155        C  0.47692041  0.51367082  0.00092669    -0.00300
C156        C  0.50927257  0.56601536  0.02685828     0.12200
C157        C  0.56418779  0.59748330  0.01116663    -0.10400
C158        C  0.58666941  0.57883182  0.96943301    -0.10400
C159        C  0.55551788  0.52726865  0.94352111     0.12200
C160        C  0.50032858  0.49380767  0.96048396    -0.00300
C161        C  0.39057776  0.42833750  0.99238490    -0.10500
C162        C  0.41402549  0.40808873  0.95454780    -0.10500
C163        C  0.46843083  0.44037331  0.93728012     0.12400
C164        C  0.49210779  0.42041273  0.89805867    -0.08600
C165        C  0.54575317  0.45471548  0.87997111    -0.02400
C166        C  0.57805791  0.50746406  0.90208961    -0.08600
H167        H  0.59007213  0.63722664  0.03025902     0.09700
H168        H  0.62893519  0.60487207  0.95810918     0.09700
H169        H  0.34823681  0.40238520  0.00345032     0.09800
H170        H  0.38887398  0.36707598  0.93824842     0.09800
H171        H  0.40984507  0.57011447  0.10346896     0.06300
H172        H  0.56279570  0.43999694  0.84736933     0.06300
C173        C  0.52623666  0.57809631  0.38934384    -0.08600
C174        C  0.47827750  0.54758832  0.35754338    -0.02400
C175        C  0.43875410  0.49479566  0.37471087    -0.08600
C176        C  0.44867379  0.47021334  0.42418234     0.12400
C177        C  0.49782109  0.50046946  0.45663273    -0.00300
C178        C  0.53644213  0.55477453  0.43946779     0.12200
C179        C  0.58472858  0.58371422  0.47173109    -0.10400
C180        C  0.59559232  0.55974610  0.51969357    -0.10400
C181        C  0.55837955  0.50601690  0.53753034     0.12200
C182        C  0.50890597  0.47601760  0.50557246    -0.00300
C183        C  0.41225003  0.41593065  0.44063475    -0.10500
C184        C  0.42346392  0.39171239  0.48813980    -0.10500
C185        C  0.47137952  0.42098151  0.52105612     0.12400
C186        C  0.48299635  0.39676737  0.56912457    -0.08600
C187        C  0.53060099  0.42737815  0.60135150    -0.02400
C188        C  0.56967813  0.48073650  0.58524943    -0.08600
H189        H  0.61492089  0.62501684  0.45949839     0.09700
H190        H  0.63386471  0.58377469  0.54213874     0.09700
H191        H  0.37517935  0.39131727  0.41619734     0.09800
H192        H  0.39419365  0.34976180  0.49907481     0.09800
H193        H  0.47089931  0.56619249  0.31925344     0.06300
H194        H  0.53806069  0.40813684  0.63879177     0.06300
C195        C  0.40780206  0.88728011  0.44357036    -0.08600
C196        C  0.44173208  0.86836198  0.42772890    -0.02400
C197        C  0.49597226  0.89542314  0.44428179    -0.08600
C198        C  0.51764310  0.94347544  0.47829251     0.12400
C199        C  0.48269507  0.96113217  0.49847457    -0.00300
C200        C  0.42734044  0.93252712  0.48164209     0.12200
C201        C  0.39285336  0.94868820  0.50493261    -0.10400
C202        C  0.41233175  0.99272850  0.54331179    -0.10400
C203        C  0.46711836  0.02260066  0.55905775     0.12200
C204        C  0.50291731  0.00706501  0.53612284    -0.00300
C205        C  0.57261444  0.97375697  0.49344277    -0.10500
C206        C  0.59308077  0.02062661  0.52802273    -0.10500
C207        C  0.55884271  0.03749208  0.55052575     0.12400
C208        C  0.57862791  0.08434946  0.58635521    -0.08600
C209        C  0.54258666  0.09851574  0.60883332    -0.02400
C210        C  0.48732250  0.06817578  0.59649530    -0.08600
H211        H  0.35019681  0.92667200  0.49473454     0.09700
H212        H  0.38412231  0.00350972  0.56022052     0.09700
H213        H  0.60023564  0.96162562  0.47809120     0.09800
H214        H  0.63584280  0.04312744  0.53780707     0.09800
H215        H  0.42580642  0.83208438  0.40064799     0.06300
H216        H  0.55794651  0.13414194  0.63686887     0.06300
C217        C  0.63464405  0.53948859  0.87892361    -0.14100
C218        C  0.66538620  0.51701981  0.88155849    -0.29300
H219        H  0.64579574  0.57406794  0.84980682     0.14900
H220        H  0.65147926  0.48147680  0.91017073     0.15500
C221        C  0.64409014  0.47871421  0.63712949    -0.14100
C222        C  0.62189274  0.50760661  0.61890646    -0.29300
H223        H  0.62571410  0.43654128  0.62379708     0.14900
H224        H  0.64062027  0.55000103  0.63130037     0.15500
C225        C  0.33910130  0.47500073  0.06655081    -0.14100
C226        C  0.31914478  0.44068078  0.11328217    -0.29300
H227        H  0.32034292  0.49844388  0.05599234     0.14900
H228        H  0.33774919  0.41779645  0.12670598     0.15500
C229        C  0.38950400  0.46866517  0.33674438    -0.14100
C230        C  0.33937726  0.45113697  0.35735756    -0.29300
H231        H  0.39651064  0.47715544  0.28907399     0.14900
H232        H  0.33036154  0.44455205  0.40477046     0.15500
C233        C  0.17390674  0.50602712  0.37740832    -0.14100
C234        C  0.12058784  0.48223027  0.38914870    -0.29300
H235        H  0.20173149  0.54423393  0.39905907     0.14900
H236        H  0.09197703  0.44371945  0.36869646     0.15500
C237        C  0.85822155  0.52526320  0.61858635    -0.14100
C238        C  0.91108445  0.54293698  0.62376661    -0.29300
H239        H  0.83486510  0.49352366  0.58629199     0.14900
H240        H  0.93515391  0.57226991  0.65788800     0.15500
C241        C  0.10541524  0.47846645  0.11787423    -0.14100
C242        C  0.15901831  0.49978618  0.12135673    -0.29300
H243        H  0.07765454  0.44160865  0.14225774     0.14900
H244        H  0.18497994  0.53701713  0.09637742     0.15500
C245        C  0.89373329  0.57278017  0.86057885    -0.14100
C246        C  0.88809053  0.54537545  0.91132539    -0.29300
H247        H  0.93256075  0.59379110  0.83794947     0.14900
H248        H  0.84832411  0.52361779  0.93198933     0.15500
C249        C  0.33238792  0.88065194  0.38357850    -0.14100
C250        C  0.35273939  0.85702336  0.41802678    -0.29300
H251        H  0.35011014  0.92439681  0.38344879     0.14900
H252        H  0.33419805  0.81313486  0.41568883     0.15500
C253        C  0.11667664  0.68701211  0.13822006    -0.14100
C254        C  0.13059069  0.65952755  0.10138597    -0.29300
H255        H  0.07452039  0.67294239  0.14673638     0.14900
H256        H  0.17337155  0.67463035  0.09533003     0.15500
C257        C  0.12527438  0.68433670  0.38099787    -0.14100
C258        C  0.14320452  0.66061735  0.41837898    -0.29300
H259        H  0.08225842  0.66747276  0.37496702     0.14900
H260        H  0.18661724  0.67813667  0.42189882     0.15500
C261        C  0.66445152  0.11411628  0.64029224    -0.14100
C262        C  0.63642386  0.12357751  0.59900785    -0.29300
H263        H  0.65191432  0.07284879  0.65344168     0.14900
H264        H  0.64992048  0.16570378  0.58849369     0.15500
C265        C  0.84295930  0.33810967  0.61544292    -0.14100
C266        C  0.89702197  0.36573435  0.60929673    -0.29300
H267        H  0.82060151  0.35401146  0.59307468     0.14900
H268        H  0.92089932  0.35141220  0.63110169     0.15500
C269        C  0.84645232  0.35505022  0.86936429    -0.14100
C270        C  0.89985141  0.38377853  0.88038158    -0.29300
H271        H  0.82129676  0.36850229  0.88962885     0.14900
H272        H  0.92627229  0.37116628  0.86194272     0.15500
C273        C  0.46247970  0.13603753  0.61192261    -0.14100
C274        C  0.45288054  0.08623331  0.62466378    -0.29300
H275        H  0.48790348  0.15718261  0.57348321     0.14900
H276        H  0.43109247  0.06540774  0.66512187     0.15500
C277        C  0.46244025  0.36459235  0.87287523    -0.14100
C278        C  0.48536023  0.33430719  0.87445432    -0.29300
H279        H  0.42722425  0.35263452  0.84521778     0.14900
H280        H  0.52200774  0.34888405  0.90047737     0.15500
C281        C  0.42928356  0.32021717  0.63660508    -0.14100
C282        C  0.45217470  0.33778252  0.58265375    -0.29300
H283        H  0.41643151  0.34397822  0.66125116     0.14900
H284        H  0.46569131  0.31407077  0.55901033     0.15500
C285        C  0.55268384  0.87969612  0.37575385    -0.14100
C286        C  0.52540562  0.86799227  0.42755216    -0.29300
H287        H  0.56889567  0.91948705  0.35524109     0.14900
H288        H  0.50851809  0.82715760  0.44566156     0.15500
C289        C  0.50082436  0.63430399  0.16151588    -0.14100
C290        C  0.51596278  0.63534378  0.10431782    -0.29300
H291        H  0.47081842  0.59559783  0.18120925     0.14900
H292        H  0.54586396  0.67331044  0.08336648     0.15500
C293        C  0.55726713  0.67454999  0.39049684    -0.14100
C294        C  0.56290211  0.63465978  0.36796785    -0.29300
H295        H  0.53685717  0.66715672  0.43331749     0.14900
H296        H  0.57708923  0.63892710  0.32215970     0.15500
C297        C  0.64446698  0.08821887  0.88535903    -0.14100
C298        C  0.67911339  0.14178877  0.89118580    -0.29300
H299        H  0.65040101  0.06640285  0.84969259     0.14900
H300        H  0.66941433  0.16309744  0.92411766     0.15500
C301        C  0.48146246  0.09946008  0.87019667    -0.14100
C302        C  0.51164487  0.15249601  0.85491999    -0.29300
H303        H  0.43927117  0.07618473  0.85738371     0.14900
H304        H  0.55373973  0.17573660  0.86830604     0.15500
C305        C  0.48959974  0.82669677  0.13577616    -0.14100
C306        C  0.51658509  0.87949947  0.11971154    -0.29300
H307        H  0.44900363  0.80011575  0.11897704     0.14900
H308        H  0.55715731  0.90645112  0.13630020     0.15500
C309        C  0.34693961  0.87499744  0.08934081    -0.14100
C310        C  0.32895706  0.89328389  0.13309236    -0.29300
H311        H  0.32448378  0.83160416  0.08040556     0.14900
H312        H  0.35096821  0.93613263  0.14438903     0.15500
loop_ 
_geom_bond_atom_site_label_1 
_geom_bond_atom_site_label_2 
_geom_bond_distance 
_geom_bond_site_symmetry_2 
_ccdc_geom_bond_type 
C1            C2   1.393       .  A
C1            C6   1.411       .  A
C1          C309   1.480       .  S
C2            C3   1.402       .  A
C2           H21   1.085       .  S
C3            C4   1.417       .  A
C3          C306   1.498       .  S
C4            C5   1.426       .  A
C4           C11   1.406       .  A
C5            C6   1.422       .  A
C5           C10   1.422   1_564  A
C6            C7   1.404       .  A
C7            C8   1.396   1_564  A
C7           H17   1.083       .  S
C8            C9   1.407       .  A
C8           H18   1.081       .  S
C9           C10   1.427       .  A
C9           C16   1.420       .  A
C10          C13   1.422       .  A
C11          C12   1.394   1_564  A
C11          H19   1.082       .  S
C12          C13   1.404       .  A
C12          H20   1.083       .  S
C13          C14   1.409       .  A
C14          C15   1.395       .  A
C14         C297   1.485       .  S
C15          C16   1.401       .  A
C15          H22   1.084       .  S
C16         C301   1.500       .  S
O23         Ni31   1.905       .  S
O23          C33   1.278       .  A
O24         Ni31   1.897       .  S
O24          C34   1.275       .  A
O25         Ni31   1.907       .  S
O25          C35   1.280       .  A
O26         Ni31   1.905       .  S
O26          C36   1.279       .  A
O27         Ni32   1.935       .  S
O27          C36   1.282       .  A
O28         Ni32   1.937       .  S
O28          C35   1.284       .  A
O29         Ni32   1.943       .  S
O29          C34   1.286       .  A
O30         Ni32   1.935       .  S
O30          C33   1.283       .  A
Ni31        Ni32   2.389       .  S
C33         C305   1.471       .  S
C34         C293   1.472       .  S
C35         C285   1.479       .  S
C36         C289   1.470       .  S
O37         Ni45   1.930       .  S
O37          C47   1.282       .  A
O38         Ni45   1.930       .  S
O38          C48   1.282       .  A
O39         Ni45   1.939       .  S
O39          C49   1.285       .  A
O40         Ni45   1.940       .  S
O40          C50   1.285       .  A
O41         Ni46   1.894       .  S
O41          C50   1.275       .  A
O42         Ni46   1.896       .  S
O42          C49   1.275       .  A
O43         Ni46   1.911       .  S
O43          C48   1.280       .  A
O44         Ni46   1.910       .  S
O44          C47   1.281       .  A
Ni45        Ni46   2.392       .  S
C47         C281   1.473       .  S
C48         C302   1.473       .  S
C49         C278   1.466       .  S
C50         C273   1.468       .  S
O51         Ni59   1.947       .  S
O51          C61   1.286       .  A
O52         Ni59   1.946       .  S
O52          C62   1.286       .  A
O53         Ni59   1.939       .  S
O53          C63   1.284       .  A
O54         Ni59   1.934       .  S
O54          C64   1.283       .  A
O55         Ni60   1.903       .  S
O55          C64   1.278       .  A
O56         Ni60   1.904       .  S
O56          C63   1.278       .  A
O57         Ni60   1.898       .  S
O57          C62   1.278       .  A
O58         Ni60   1.898       .  S
O58          C61   1.277       .  A
Ni59        Ni60   2.390       .  S
C61         C269   1.475       .  S
C62         C261   1.482       .  S
C63         C265   1.475       .  S
C64         C298   1.468       .  S
O65         Ni73   1.896       .  S
O65          C75   1.278       .  A
O66         Ni73   1.896       .  S
O66          C76   1.278       .  A
O67         Ni73   1.910       .  S
O67          C77   1.281       .  A
O68         Ni73   1.907       .  S
O68          C78   1.281       .  A
O69         Ni74   1.927       .  S
O69          C78   1.281       .  A
O70         Ni74   1.932       .  S
O70          C77   1.282       .  A
O71         Ni74   1.940       .  S
O71          C76   1.285       .  A
O72         Ni74   1.938       .  S
O72          C75   1.284       .  A
Ni73        Ni74   2.389       .  S
C75         C249   1.476       .  S
C76         C253   1.480       .  S
C77         C310   1.478       .  S
C78         C257   1.474       .  S
C79          C80   1.404       .  A
C79          C84   1.419       .  A
C79         C270   1.501       .  S
C80          C81   1.393       .  A
C80          H99   1.085       .  S
C81          C82   1.407       .  A
C81         C246   1.479       .  S
C82          C83   1.421       .  A
C82          C89   1.404       .  A
C83          C84   1.426       .  A
C83          C88   1.420   1_656  A
C84          C85   1.406       .  A
C85          C86   1.397   1_656  A
C85          H95   1.082       .  S
C86          C87   1.406       .  A
C86          H96   1.082       .  S
C87          C88   1.424       .  A
C87          C94   1.415       .  A
C88          C91   1.424       .  A
C89          C90   1.394   1_656  A
C89          H97   1.083       .  S
C90          C91   1.405       .  A
C90          H98   1.081       .  S
C91          C92   1.411       .  A
C92          C93   1.396       .  A
C92         C254   1.483       .  S
C93          C94   1.402       .  A
C93         H100   1.086       .  S
C94         C241   1.496       .  S
C101        C102   1.403       .  A
C101        C106   1.417       .  A
C101        C266   1.494       .  S
C102        C103   1.396       .  A
C102        H121   1.085       .  S
C103        C104   1.412       .  A
C103        C238   1.492       .  S
C104        C105   1.426       .  A
C104        C111   1.404   1_655  A
C105        C106   1.423       .  A
C105        C110   1.422   1_655  A
C106        C107   1.407       .  A
C107        C108   1.399   1_655  A
C107        H117   1.083       .  S
C108        C109   1.406       .  A
C108        H118   1.082       .  S
C109        C110   1.428       .  A
C109        C116   1.422       .  A
C110        C113   1.423       .  A
C111        C112   1.393       .  A
C111        H119   1.083   1_455  S
C112        C113   1.404       .  A
C112        H120   1.082       .  S
C113        C114   1.409       .  A
C114        C115   1.390       .  A
C114        C258   1.478       .  S
C115        C116   1.401       .  A
C115        H122   1.085       .  S
C116        C234   1.501       .  S
O123       Ni131   1.898       .  S
O123        C133   1.277       .  A
O124       Ni131   1.896       .  S
O124        C134   1.276       .  A
O125       Ni131   1.912       .  S
O125        C135   1.281       .  A
O126       Ni131   1.902       .  S
O126        C136   1.279       .  A
O127       Ni132   1.936       .  S
O127        C136   1.283       .  A
O128       Ni132   1.934       .  S
O128        C135   1.282       .  A
O129       Ni132   1.950       .  S
O129        C134   1.287       .  A
O130       Ni132   1.947       .  S
O130        C133   1.286       .  A
Ni131      Ni132   2.389       .  S
C133        C230   1.478       .  S
C134        C242   1.475       .  S
C135        C233   1.476       .  S
C136        C226   1.474       .  S
O137       Ni145   1.931       .  S
O137        C147   1.282       .  A
O138       Ni145   1.929       .  S
O138        C148   1.282       .  A
O139       Ni145   1.949       .  S
O139        C149   1.287       .  A
O140       Ni145   1.944       .  S
O140        C150   1.286       .  A
O141       Ni146   1.902       .  S
O141        C150   1.277       .  A
O142       Ni146   1.900       .  S
O142        C149   1.277       .  A
O143       Ni146   1.911       .  S
O143        C148   1.280       .  A
O144       Ni146   1.907       .  S
O144        C147   1.280       .  A
Ni145      Ni146   2.390       .  S
C147        C245   1.474       .  S
C148        C221   1.474       .  S
C149        C218   1.479       .  S
C150        C237   1.472       .  S
C151        C152   1.402       .  A
C151        C156   1.419       .  A
C151        C290   1.498       .  S
C152        C153   1.391       .  A
C152        H171   1.085       .  S
C153        C154   1.408       .  A
C153        C225   1.480       .  S
C154        C155   1.423       .  A
C154        C161   1.403   1_554  A
C155        C156   1.426       .  A
C155        C160   1.420   1_554  A
C156        C157   1.406       .  A
C157        C158   1.399   1_554  A
C157        H167   1.082       .  S
C158        C159   1.406       .  A
C158        H168   1.083       .  S
C159        C160   1.424       .  A
C159        C166   1.417       .  A
C160        C163   1.423       .  A
C161        C162   1.392       .  A
C161        H169   1.083   1_556  S
C162        C163   1.406       .  A
C162        H170   1.082       .  S
C163        C164   1.410       .  A
C164        C165   1.400       .  A
C164        C277   1.489       .  S
C165        C166   1.401       .  A
C165        H172   1.085       .  S
C166        C217   1.495       .  S
C173        C174   1.397       .  A
C173        C178   1.412       .  A
C173        C294   1.485       .  S
C174        C175   1.399       .  A
C174        H193   1.086       .  S
C175        C176   1.418       .  A
C175        C229   1.489       .  S
C176        C177   1.426       .  A
C176        C183   1.405       .  A
C177        C178   1.422       .  A
C177        C182   1.422       .  A
C178        C179   1.404       .  A
C179        C180   1.394       .  A
C179        H189   1.083       .  S
C180        C181   1.407       .  A
C180        H190   1.081       .  S
C181        C182   1.427       .  A
C181        C188   1.419       .  A
C182        C185   1.421       .  A
C183        C184   1.396       .  A
C183        H191   1.082       .  S
C184        C185   1.405       .  A
C184        H192   1.083       .  S
C185        C186   1.411       .  A
C186        C187   1.395       .  A
C186        C282   1.481       .  S
C187        C188   1.401       .  A
C187        H194   1.084       .  S
C188        C222   1.499       .  S
C195        C196   1.395       .  A
C195        C200   1.412       .  A
C195        C250   1.482       .  S
C196        C197   1.395       .  A
C196        H215   1.086       .  S
C197        C198   1.414       .  A
C197        C286   1.481       .  S
C198        C199   1.423       .  A
C198        C205   1.405       .  A
C199        C200   1.423       .  A
C199        C204   1.419   1_565  A
C200        C201   1.405       .  A
C201        C202   1.391       .  A
C201        H211   1.082       .  S
C202        C203   1.404   1_565  A
C202        H212   1.083   1_565  S
C203        C204   1.423       .  A
C203        C210   1.409       .  A
C204        C207   1.424       .  A
C205        C206   1.398   1_565  A
C205        H213   1.083       .  S
C206        C207   1.406       .  A
C206        H214   1.082       .  S
C207        C208   1.416       .  A
C208        C209   1.398       .  A
C208        C262   1.484       .  S
C209        C210   1.398       .  A
C209        H216   1.086       .  S
C210        C274   1.486       .  S
C217        C218   1.346       .  D
C217        H219   1.086       .  S
C218        H220   1.088       .  S
C221        C222   1.350       .  D
C221        H223   1.087       .  S
C222        H224   1.086       .  S
C225        C226   1.342       .  D
C225        H227   1.088       .  S
C226        H228   1.086       .  S
C229        C230   1.347       .  D
C229        H231   1.089       .  S
C230        H232   1.085       .  S
C233        C234   1.351       .  D
C233        H235   1.087       .  S
C234        H236   1.086       .  S
C237        C238   1.345       .  D
C237        H239   1.087       .  S
C238        H240   1.086       .  S
C241        C242   1.344       .  D
C241        H243   1.086       .  S
C242        H244   1.088       .  S
C245        C246   1.340       .  D
C245        H247   1.086       .  S
C246        H248   1.088       .  S
C249        C250   1.347       .  D
C249        H251   1.086       .  S
C250        H252   1.088       .  S
C253        C254   1.345       .  D
C253        H255   1.086       .  S
C254        H256   1.088       .  S
C257        C258   1.340       .  D
C257        H259   1.086       .  S
C258        H260   1.089       .  S
C261        C262   1.346       .  D
C261        H263   1.085       .  S
C262        H264   1.088       .  S
C265        C266   1.346       .  D
C265        H267   1.088       .  S
C266        H268   1.086       .  S
C269        C270   1.347       .  D
C269        H271   1.087       .  S
C270        H272   1.086       .  S
C273        C274   1.340       .  D
C273        H275   1.088       .  S
C274        H276   1.087       .  S
C277        C278   1.342       .  D
C277        H279   1.086       .  S
C278        H280   1.088       .  S
C281        C282   1.342       .  D
C281        H283   1.087       .  S
C282        H284   1.087       .  S
C285        C286   1.343       .  D
C285        H287   1.086       .  S
C286        H288   1.088       .  S
C289        C290   1.350       .  D
C289        H291   1.087       .  S
C290        H292   1.085       .  S
C293        C294   1.342       .  D
C293        H295   1.087       .  S
C294        H296   1.088       .  S
C297        C298   1.342       .  D
C297        H299   1.087       .  S
C298        H300   1.088       .  S
C301        C302   1.350       .  D
C301        H303   1.085       .  S
C302        H304   1.087       .  S
C305        C306   1.346       .  D
C305        H307   1.086       .  S
C306        H308   1.086       .  S
C309        C310   1.342       .  D
C309        H311   1.088       .  S
C310        H312   1.087       .  S
