geometry optimzed in LAMMPS
_audit_creation_date              2020-12-01 
_audit_creation_method            'lammps2cif' 
_symmetry_space_group_name_H-M    'P1' 
_symmetry_Int_Tables_number       1 
_symmetry_cell_setting            triclinic 
loop_ 
_symmetry_equiv_pos_as_xyz 
  x,y,z 
_cell_length_a                    27.85554968 
_cell_length_b                    27.855290143634743 
_cell_length_c                    29.47103243206997 
_cell_angle_alpha                 89.99984534250562 
_cell_angle_beta                  90.00066124051044 
_cell_angle_gamma                 90.00179269849228 
loop_ 
_atom_site_label 
_atom_site_type_symbol 
_atom_site_fract_x 
_atom_site_fract_y 
_atom_site_fract_z 
_atom_site_charge 
O1          O  0.20917668  0.72188769  0.30898783    -0.70700
O2          O  0.32884128  0.73982258  0.24689771    -0.70700
O3          O  0.27797611  0.79068670  0.30898811    -0.70800
O4          O  0.26003834  0.67102072  0.24689752    -0.70800
O5          O  0.22182761  0.70923575  0.19092056    -0.70700
O6          O  0.23976548  0.82890129  0.25301086    -0.70700
O7          O  0.29062787  0.77803430  0.19092042    -0.70700
O8          O  0.17096278  0.76009966  0.25301093    -0.70800
Ni9        Ni  0.27037959  0.72948295  0.27994882     1.25400
Ni10       Ni  0.22942448  0.77043921  0.21995960     1.25400
C11         C  0.17056354  0.73818352  0.29118471     0.91500
C12         C  0.32924104  0.76173872  0.20872384     0.91400
C13         C  0.26168128  0.82930057  0.29118478     0.91500
C14         C  0.23812192  0.67062175  0.20872380     0.91600
C15         C  0.54352314  0.77479028  0.14069501     0.06900
C16         C  0.54347902  0.77753367  0.09318753    -0.09300
C17         C  0.49992728  0.77886649  0.06937054     0.04400
C18         C  0.45636334  0.77753472  0.09316756    -0.07800
C19         C  0.45629653  0.77479152  0.14067581     0.06900
C20         C  0.49990449  0.77351587  0.16439436    -0.07200
H21         H  0.57720169  0.77807469  0.07479471     0.12500
H22         H  0.42264833  0.77807653  0.07475894     0.10000
H23         H  0.49989557  0.77092411  0.20111590     0.09800
C24         C  0.54360663  0.77483726  0.85928215     0.06900
C25         C  0.54353748  0.77756652  0.90679102    -0.09300
C26         C  0.49997213  0.77888912  0.93058605     0.04400
C27         C  0.45642245  0.77756113  0.90676548    -0.07800
C28         C  0.45637985  0.77483169  0.85925853     0.06900
C29         C  0.49999921  0.77356654  0.83556257    -0.07200
H30         H  0.57725277  0.77810404  0.92520280     0.12500
H31         H  0.42270208  0.77809432  0.92515707     0.10000
H32         H  0.50001123  0.77098438  0.79884374     0.09800
C33         C  0.04352589  0.72513865  0.35926048     0.06900
C34         C  0.04348250  0.72240765  0.40676993    -0.09300
C35         C  0.99992995  0.72108363  0.43058529     0.04400
C36         C  0.95636669  0.72241157  0.40678647    -0.07800
C37         C  0.95629930  0.72514233  0.35927791     0.06900
C38         C  0.99990639  0.72640925  0.33555893    -0.07200
H39         H  0.07720788  0.72187035  0.42516419     0.12500
H40         H  0.92265397  0.72187758  0.42519352     0.10000
H41         H  0.99989824  0.72899302  0.29883455     0.09800
C42         C  0.04360127  0.72518025  0.64067697     0.06900
C43         C  0.04353206  0.72243540  0.59316870    -0.09300
C44         C  0.99996935  0.72110609  0.56937170     0.04400
C45         C  0.95642034  0.72244299  0.59318890    -0.07800
C46         C  0.95637478  0.72518786  0.64069596     0.06900
C47         C  0.99999361  0.72645982  0.66439553    -0.07200
H48         H  0.07724499  0.72189098  0.57476341     0.12500
H49         H  0.92270079  0.72190470  0.57479935     0.10000
H50         H  0.00000349  0.72905301  0.70111958     0.09800
O51         O  0.29072768  0.77807708  0.80898528    -0.70700
O52         O  0.17105913  0.76014484  0.74689866    -0.70700
O53         O  0.22192687  0.70927941  0.80898727    -0.70800
O54         O  0.23986269  0.82894561  0.74689745    -0.70800
O55         O  0.27806987  0.79073142  0.69091885    -0.70700
O56         O  0.26013404  0.67106498  0.75300881    -0.70700
O57         O  0.20926930  0.72193355  0.69092013    -0.70700
O58         O  0.32893797  0.73986572  0.75300689    -0.70800
Ni59       Ni  0.22952280  0.77048318  0.77994831     1.25400
Ni60       Ni  0.27047412  0.72952742  0.71995756     1.25400
C61         C  0.32933987  0.76178145  0.79118072     0.91500
C62         C  0.17065735  0.73822944  0.70872468     0.91400
C63         C  0.23821955  0.67066560  0.79118313     0.91500
C64         C  0.26177651  0.82934508  0.70872303     0.91600
C65         C  0.45628516  0.22514577  0.14064741     0.06900
C66         C  0.49989232  0.22641363  0.16436726    -0.09300
C67         C  0.54351180  0.22514755  0.14066855     0.04400
C68         C  0.54346862  0.22242011  0.09315994    -0.07800
C69         C  0.49991708  0.22109492  0.06934190     0.06900
C70         C  0.45635295  0.22241842  0.09313874    -0.07200
H71         H  0.49988356  0.22899408  0.20108939     0.12500
H72         H  0.57719291  0.22188671  0.07476714     0.10000
H73         H  0.42263988  0.22188322  0.07472944     0.09800
C74         C  0.45635646  0.22519053  0.85923281     0.06900
C75         C  0.45640213  0.22244875  0.90674118    -0.09300
C76         C  0.49995405  0.22111906  0.93055658     0.04400
C77         C  0.54351521  0.22245286  0.90675691    -0.07800
C78         C  0.54358285  0.22519446  0.85925025     0.06900
C79         C  0.49997562  0.22646668  0.83553321    -0.07200
H80         H  0.42267766  0.22190647  0.92513545     0.12500
H81         H  0.57722455  0.22191407  0.92516265     0.10000
H82         H  0.49998125  0.22905717  0.79881274     0.09800
C83         C  0.22506567  0.45635272  0.14064301     0.06900
C84         C  0.22633411  0.49996308  0.16435476    -0.09300
C85         C  0.22506801  0.54357976  0.14065221     0.04400
C86         C  0.22233933  0.54352906  0.09314431    -0.07800
C87         C  0.22101354  0.49997472  0.06933176     0.06900
C88         C  0.22233721  0.45641499  0.09313593    -0.09600
H89         H  0.22891547  0.49995911  0.20107256     0.12500
H90         H  0.22180538  0.57724916  0.07474647     0.10000
H91         H  0.22180205  0.42270082  0.07473261     0.09800
C92         C  0.22514336  0.45638711  0.85922994     0.06900
C93         C  0.22238959  0.45643840  0.90673663    -0.09300
C94         C  0.22105505  0.49999303  0.93054786     0.04400
C95         C  0.22239571  0.54355282  0.90674507    -0.07800
C96         C  0.22514955  0.54361439  0.85923829     0.06900
C97         C  0.22642667  0.50000321  0.83552650    -0.07200
H98         H  0.22184198  0.42271851  0.92513352     0.12500
H99         H  0.22185268  0.57726740  0.92514882     0.10000
H100        H  0.22902687  0.50000615  0.79880719     0.09800
C101        C  0.95629025  0.27479665  0.35925105     0.06900
C102        C  0.95635852  0.27754291  0.40675791    -0.09300
C103        C  0.99992087  0.27887552  0.43055689     0.04400
C104        C  0.04347205  0.27754057  0.40674110    -0.07800
C105        C  0.04351692  0.27479438  0.35923372     0.06900
C106        C  0.99989757  0.27351917  0.33553472    -0.07200
H107        H  0.92264637  0.27808611  0.42516369     0.12500
H108        H  0.07719401  0.27808195  0.42513421     0.10000
H109        H  0.99988818  0.27092441  0.29881461     0.09800
C110        C  0.95635484  0.27484407  0.64066506     0.06900
C111        C  0.95640170  0.27757623  0.59315689    -0.09300
C112        C  0.99995335  0.27889908  0.56934192     0.04400
C113        C  0.04351393  0.27756862  0.59314307    -0.07800
C114        C  0.04358116  0.27483658  0.64065020     0.06900
C115        C  0.99997330  0.27357114  0.66436557    -0.07200
H116        H  0.92267938  0.27811482  0.57476311     0.12500
H117        H  0.07722433  0.27810177  0.57473885     0.10000
H118        H  0.99997932  0.27098721  0.70108602     0.09800
C119        C  0.27473682  0.95635326  0.35924046     0.06900
C120        C  0.27748711  0.95641515  0.40674659    -0.09300
C121        C  0.27882069  0.99997690  0.43054954     0.04400
C122        C  0.27748211  0.04353250  0.40673694    -0.07800
C123        C  0.27473154  0.04358050  0.35923014     0.06900
C124        C  0.27345561  0.99996321  0.33552871    -0.07200
H125        H  0.27803304  0.92269894  0.42515296     0.12500
H126        H  0.27802495  0.07725468  0.42513623     0.10000
H127        H  0.27085845  0.99995739  0.29881362     0.09800
C128        C  0.27481616  0.95638942  0.64065404     0.06900
C129        C  0.27754235  0.95644018  0.59314536    -0.09300
C130        C  0.27886195  0.99999458  0.56933328     0.04400
C131        C  0.27753432  0.04355394  0.59313650    -0.07800
C132        C  0.27480831  0.04361654  0.64064425     0.06900
C133        C  0.27354591  0.00000631  0.66435816    -0.07200
H134        H  0.27807859  0.92271910  0.57474875     0.12500
H135        H  0.27806412  0.07726746  0.57473343     0.10000
H136        H  0.27096604  0.00001016  0.70108007     0.09800
O137        O  0.23983999  0.17106664  0.74687192    -0.70700
O138        O  0.22190611  0.29073063  0.80896312    -0.70700
O139        O  0.17103779  0.23986494  0.74687331    -0.70800
O140        O  0.29070518  0.22193609  0.80896124    -0.70800
O141        O  0.32891713  0.26015013  0.75298381    -0.70700
O142        O  0.20924963  0.27807894  0.69089585    -0.70700
O143        O  0.26011482  0.32894800  0.75298575    -0.70700
O144        O  0.27804892  0.20928342  0.69089433    -0.70800
Ni145      Ni  0.22950091  0.22952797  0.77992341     1.25400
Ni146      Ni  0.27045399  0.27048664  0.71993377     1.25400
C147        C  0.26175495  0.17066861  0.70869801     0.91500
C148        C  0.23820040  0.32934537  0.79115999     0.91400
C149        C  0.17063681  0.26178180  0.70869988     0.91500
C150        C  0.32931777  0.23823418  0.79115752     0.91600
O151        O  0.17095230  0.23981985  0.25298499    -0.70700
O152        O  0.29061641  0.22188916  0.19089385    -0.70700
O153        O  0.23975321  0.17102017  0.25298487    -0.70800
O154        O  0.22181833  0.29068572  0.19089396    -0.70800
O155        O  0.26003073  0.32890142  0.24687077    -0.70700
O156        O  0.27796564  0.20923632  0.30896137    -0.70700
O157        O  0.32883148  0.26010216  0.24687063    -0.70700
O158        O  0.20916802  0.27803276  0.30896146    -0.70800
Ni159      Ni  0.22941351  0.22948215  0.21993330     1.25400
Ni160      Ni  0.27037044  0.27043964  0.27992207     1.25400
C161        C  0.17055401  0.26173614  0.29115856     0.91500
C162        C  0.32923018  0.23818619  0.20869690     0.91400
C163        C  0.26166969  0.17062185  0.29115847     0.91500
C164        C  0.23811401  0.32930013  0.20869722     0.91600
O165        O  0.76002708  0.17102602  0.25302995    -0.70700
O166        O  0.77796475  0.29069223  0.19094028    -0.70700
O167        O  0.82883149  0.23982600  0.25302892    -0.70800
O168        O  0.70916324  0.22189515  0.19094149    -0.70800
O169        O  0.67095300  0.26010692  0.24691968    -0.70700
O170        O  0.79062158  0.27803771  0.30900733    -0.70700
O171        O  0.73975788  0.32890703  0.24691864    -0.70700
O172        O  0.72181986  0.20924054  0.30900830    -0.70800
Ni173      Ni  0.77036789  0.22948836  0.21997908     1.25400
Ni174      Ni  0.72941672  0.27044451  0.27996961     1.25400
C175        C  0.73811277  0.17062658  0.29120430     0.91500
C176        C  0.76167247  0.32930624  0.20874449     0.91400
C177        C  0.82923367  0.26174175  0.29120280     0.91500
C178        C  0.67055135  0.23819146  0.20874571     0.91600
C179        C  0.77474573  0.54358438  0.14069761     0.06900
C180        C  0.77346315  0.49996781  0.16439919    -0.09300
C181        C  0.77474290  0.45635706  0.14068784     0.04400
C182        C  0.77749904  0.45641799  0.09318129    -0.07800
C183        C  0.77883935  0.49998012  0.06937898     0.06900
C184        C  0.77750188  0.54353557  0.09319166    -0.07200
H185        H  0.77086132  0.49996213  0.20111408     0.12500
H186        H  0.77804396  0.42270048  0.07477409     0.10000
H187        H  0.77804860  0.57725639  0.07479275     0.09800
C188        C  0.77482846  0.54363034  0.85928551     0.06900
C189        C  0.77355683  0.50002108  0.83556860    -0.09300
C190        C  0.77482222  0.45640329  0.85927199     0.04400
C191        C  0.77755288  0.45645080  0.90678071    -0.07800
C192        C  0.77888157  0.50000327  0.93059459     0.06900
C193        C  0.77755907  0.54356453  0.90679426    -0.07200
H194        H  0.77097256  0.50002760  0.79884370     0.12500
H195        H  0.77808521  0.42272975  0.92517423     0.10000
H196        H  0.77809642  0.57727860  0.92519857     0.09800
C197        C  0.72507024  0.04358078  0.35927333     0.06900
C198        C  0.72234599  0.04352911  0.40677996    -0.09300
C199        C  0.72102598  0.99997662  0.43059480     0.04400
C200        C  0.72235123  0.95641540  0.40679376    -0.07800
C201        C  0.72507537  0.95635362  0.35928400     0.06900
C202        C  0.72633811  0.99996576  0.33557014    -0.07200
H203        H  0.72181114  0.07724327  0.42517382     0.12500
H204        H  0.72182097  0.92269532  0.42519915     0.10000
H205        H  0.72891710  0.99995857  0.29884894     0.09800
C206        C  0.72514782  0.04363017  0.64068723     0.06900
C207        C  0.72643083  0.00002142  0.66440231    -0.09300
C208        C  0.72515771  0.95640285  0.64070091     0.04400
C209        C  0.72240859  0.95645031  0.59319316    -0.07800
C210        C  0.72106831  0.00000351  0.56937978     0.06900
C211        C  0.72239886  0.04356472  0.59318056    -0.07200
H212        H  0.72902769  0.00002771  0.70112300     0.12500
H213        H  0.72186882  0.92272776  0.57479784     0.10000
H214        H  0.72185209  0.07727721  0.57477611     0.09800
O215        O  0.70925212  0.22195165  0.80900466    -0.70700
O216        O  0.82891725  0.23988441  0.74691354    -0.70700
O217        O  0.77805397  0.29074884  0.80900438    -0.70800
O218        O  0.76011363  0.17108364  0.74691400    -0.70800
O219        O  0.72190321  0.20929876  0.69093698    -0.70700
O220        O  0.73984340  0.32896455  0.75302774    -0.70700
O221        O  0.79070365  0.27809690  0.69093683    -0.70700
O222        O  0.67103888  0.26016406  0.75302774    -0.70800
Ni223      Ni  0.77045559  0.22954564  0.77996523     1.25400
Ni224      Ni  0.72950078  0.27050257  0.71997632     1.25400
C225        C  0.67063898  0.23824796  0.79120155     0.91500
C226        C  0.82931667  0.26180060  0.70873977     0.91400
C227        C  0.76176045  0.32936301  0.79120122     0.91500
C228        C  0.73819787  0.17068465  0.70874005     0.91600
O229        O  0.72183132  0.79068874  0.30903237    -0.70700
O230        O  0.73976657  0.67102454  0.24694029    -0.70700
O231        O  0.79063081  0.72189358  0.30903094    -0.70800
O232        O  0.67096395  0.73982225  0.24694205    -0.70800
O233        O  0.70917608  0.77803677  0.19096502    -0.70700
O234        O  0.82884284  0.76010803  0.25305385    -0.70700
O235        O  0.77797562  0.70924221  0.19096331    -0.70700
O236        O  0.76004033  0.82890601  0.25305513    -0.70800
Ni237      Ni  0.72942676  0.72948570  0.27999249     1.25400
Ni238      Ni  0.77038008  0.77044487  0.22000329     1.25400
C239        C  0.73812533  0.82930357  0.29122898     0.91500
C240        C  0.76168172  0.67062721  0.20876636     0.91400
C241        C  0.82924358  0.73819125  0.29122735     0.91500
C242        C  0.67056332  0.76173889  0.20876853     0.91600
O243        O  0.67106122  0.73988185  0.75306115    -0.70700
O244        O  0.79072428  0.72195176  0.69096983    -0.70700
O245        O  0.73986263  0.67108321  0.75306112    -0.70800
O246        O  0.72192634  0.79074793  0.69097002    -0.70800
O247        O  0.76013895  0.82896449  0.74694614    -0.70700
O248        O  0.77807519  0.70929948  0.80903745    -0.70700
O249        O  0.82894036  0.76016516  0.74694574    -0.70700
O250        O  0.70927625  0.77809533  0.80903764    -0.70800
Ni251      Ni  0.72952213  0.72954473  0.72000956     1.25400
Ni252      Ni  0.77047920  0.77050274  0.77999784     1.25400
C253        C  0.67066242  0.76179795  0.79123473     0.91500
C254        C  0.82933836  0.73824860  0.70877224     0.91400
C255        C  0.76177972  0.67068491  0.79123453     0.91500
C256        C  0.73822218  0.82936254  0.70877264     0.91600
C257        C  0.72827390  0.08842931  0.66500280    -0.09500
C258        C  0.73218401  0.12595344  0.68514342    -0.11100
C259        C  0.72829276  0.91161334  0.66502961    -0.09500
C260        C  0.73220759  0.87409297  0.68517576    -0.11100
C261        C  0.72820053  0.91155770  0.33496624    -0.09500
C262        C  0.73211123  0.87403426  0.31482497    -0.11100
C263        C  0.71974450  0.99998524  0.47950602    -0.09500
C264        C  0.71975730  0.99999440  0.52046933    -0.11100
C265        C  0.76777739  0.37409345  0.81479744    -0.09500
C266        C  0.77169202  0.41161392  0.83494334    -0.11100
C267        C  0.76779426  0.62595380  0.81483033    -0.09500
C268        C  0.77170469  0.58842913  0.83497038    -0.11100
C269        C  0.76769679  0.62589669  0.18516961    -0.09500
C270        C  0.77161160  0.58837612  0.16502475    -0.11100
C271        C  0.78016675  0.49999435  0.97950604    -0.09500
C272        C  0.78015408  0.49998704  0.02046970    -0.11100
C273        C  0.77160609  0.41156023  0.16500655    -0.09500
C274        C  0.76768930  0.37403790  0.18514896    -0.11100
C275        C  0.73209949  0.12589521  0.31480074    -0.09500
C276        C  0.72819114  0.08837360  0.33494541    -0.11100
C277        C  0.26776949  0.12593745  0.68510249    -0.09500
C278        C  0.27168127  0.08841384  0.66496202    -0.11100
C279        C  0.26768379  0.12589130  0.31475560    -0.09500
C280        C  0.27159781  0.08837124  0.33490183    -0.11100
C281        C  0.28013224  0.99998312  0.47945876    -0.09500
C282        C  0.28014473  0.99998877  0.52042240    -0.11100
C283        C  0.08838037  0.27170759  0.66496580    -0.09500
C284        C  0.12590455  0.26779532  0.68510524    -0.11100
C285        C  0.91156628  0.27172135  0.66499534    -0.09500
C286        C  0.87404670  0.26781255  0.68514249    -0.11100
C287        C  0.08830493  0.27166249  0.33490268    -0.09500
C288        C  0.12582407  0.26774924  0.31475557    -0.11100
C289        C  0.87396611  0.26775514  0.31479713    -0.09500
C290        C  0.91149077  0.27166714  0.33493666    -0.11100
C291        C  0.99993268  0.28018144  0.47946746    -0.09500
C292        C  0.99994314  0.28018858  0.52043070    -0.11100
C293        C  0.23218709  0.37407543  0.81475755    -0.09500
C294        C  0.22827441  0.41159551  0.83490358    -0.11100
C295        C  0.23209996  0.37403139  0.18510161    -0.09500
C296        C  0.22818981  0.41155520  0.16496131    -0.11100
C297        C  0.21974170  0.49998730  0.97945790    -0.09500
C298        C  0.21972922  0.49998129  0.02042112    -0.11100
C299        C  0.41156837  0.22831580  0.83490183    -0.09500
C300        C  0.37404854  0.23222422  0.81475424    -0.11100
C301        C  0.62590751  0.23223471  0.81479752    -0.09500
C302        C  0.58838309  0.22832343  0.83493651    -0.11100
C303        C  0.37396104  0.23217480  0.18510070    -0.09500
C304        C  0.41148545  0.22826733  0.16496094    -0.11100
C305        C  0.58829979  0.22827152  0.16500159    -0.09500
C306        C  0.62581993  0.23218037  0.18514925    -0.11100
C307        C  0.49994293  0.21981558  0.97946738    -0.09500
C308        C  0.49993083  0.21980831  0.02043106    -0.11100
C309        C  0.26778874  0.87407610  0.68512627    -0.09500
C310        C  0.27169617  0.91159785  0.66498118    -0.11100
C311        C  0.23220312  0.62593396  0.81477836    -0.09500
C312        C  0.22828636  0.58841102  0.83491988    -0.11100
C313        C  0.08840056  0.72830651  0.66499016    -0.09500
C314        C  0.12592532  0.73221680  0.68512975    -0.11100
C315        C  0.87406800  0.73223536  0.68517468    -0.09500
C316        C  0.91158672  0.72832133  0.66502701    -0.11100
C317        C  0.91149980  0.72826861  0.33496326    -0.09500
C318        C  0.87397544  0.73217903  0.31482272    -0.11100
C319        C  0.99994183  0.71979457  0.47949651    -0.09500
C320        C  0.99995464  0.71980128  0.52046018    -0.11100
C321        C  0.41159158  0.77170496  0.83492396    -0.09500
C322        C  0.37407176  0.76779415  0.81477657    -0.11100
C323        C  0.58840671  0.77171646  0.83496985    -0.09500
C324        C  0.62593154  0.76780931  0.81483072    -0.11100
C325        C  0.58831169  0.77166135  0.16502623    -0.09500
C326        C  0.62583222  0.76775048  0.18517257    -0.11100
C327        C  0.49995563  0.78017733  0.97949646    -0.09500
C328        C  0.49994066  0.78017052  0.02046017    -0.11100
C329        C  0.27160755  0.91155527  0.33492249    -0.09500
C330        C  0.26769559  0.87403191  0.31478119    -0.11100
C331        C  0.22819471  0.58837089  0.16498043    -0.09500
C332        C  0.23210678  0.62589113  0.18512683    -0.11100
C333        C  0.41149715  0.77166351  0.16498904    -0.09500
C334        C  0.37397241  0.76775232  0.18512840    -0.11100
C335        C  0.12583356  0.73217124  0.31478195    -0.09500
C336        C  0.08831357  0.72826213  0.33492942    -0.11100
loop_ 
_geom_bond_atom_site_label_1 
_geom_bond_atom_site_label_2 
_geom_bond_distance 
_geom_bond_site_symmetry_2 
_ccdc_geom_bond_type 
O1           Ni9   1.919       .  S
O1           C11   1.280       .  A
O2           Ni9   1.919       .  S
O2           C12   1.280       .  A
O3           Ni9   1.919       .  S
O3           C13   1.280       .  A
O4           Ni9   1.919       .  S
O4           C14   1.280       .  A
O5          Ni10   1.919       .  S
O5           C14   1.280       .  A
O6          Ni10   1.919       .  S
O6           C13   1.280       .  A
O7          Ni10   1.919       .  S
O7           C12   1.280       .  A
O8          Ni10   1.919       .  S
O8           C11   1.280       .  A
Ni9         Ni10   2.393       .  S
C11         C335   1.437       .  S
C12         C334   1.437       .  S
C13         C330   1.437       .  S
C14         C332   1.437       .  S
C15         C325   1.442       .  S
C15          C16   1.402       .  A
C15          C20   1.402       .  A
C16          C17   1.402       .  A
C16          H21   1.085       .  S
C17         C328   1.442       .  S
C17          C18   1.402       .  A
C18          C19   1.402       .  A
C18          H22   1.085       .  S
C19         C333   1.442       .  S
C19          C20   1.402       .  A
C20          H23   1.085       .  S
C24         C323   1.442       .  S
C24          C25   1.402       .  A
C24          C29   1.402       .  A
C25          C26   1.402       .  A
C25          H30   1.085       .  S
C26         C327   1.442       .  S
C26          C27   1.402       .  A
C27          C28   1.402       .  A
C27          H31   1.085       .  S
C28         C321   1.442       .  S
C28          C29   1.402       .  A
C29          H32   1.085       .  S
C33         C336   1.442       .  S
C33          C34   1.402       .  A
C33          C38   1.402   1_455  A
C34          C35   1.402   1_455  A
C34          H39   1.085       .  S
C35         C319   1.442       .  S
C35          C36   1.402       .  A
C36          C37   1.402       .  A
C36          H40   1.085       .  S
C37         C317   1.442       .  S
C37          C38   1.402       .  A
C38          H41   1.085       .  S
C42         C313   1.442       .  S
C42          C43   1.402       .  A
C42          C47   1.402   1_455  A
C43          C44   1.402   1_455  A
C43          H48   1.085       .  S
C44         C320   1.442       .  S
C44          C45   1.402       .  A
C45          C46   1.402       .  A
C45          H49   1.085       .  S
C46         C316   1.442       .  S
C46          C47   1.402       .  A
C47          H50   1.085   1_655  S
O51         Ni59   1.919       .  S
O51          C61   1.280       .  A
O52         Ni59   1.919       .  S
O52          C62   1.280       .  A
O53         Ni59   1.919       .  S
O53          C63   1.280       .  A
O54         Ni59   1.919       .  S
O54          C64   1.280       .  A
O55         Ni60   1.919       .  S
O55          C64   1.280       .  A
O56         Ni60   1.919       .  S
O56          C63   1.280       .  A
O57         Ni60   1.919       .  S
O57          C62   1.280       .  A
O58         Ni60   1.919       .  S
O58          C61   1.280       .  A
Ni59        Ni60   2.393       .  S
C61         C322   1.437       .  S
C62         C314   1.437       .  S
C63         C311   1.437       .  S
C64         C309   1.437       .  S
C65         C304   1.442       .  S
C65          C66   1.402       .  A
C65          C70   1.402       .  A
C66          C67   1.402       .  A
C66          H71   1.085       .  S
C67         C305   1.442       .  S
C67          C68   1.402       .  A
C68          C69   1.402       .  A
C68          H72   1.085       .  S
C69         C308   1.442       .  S
C69          C70   1.402       .  A
C70          H73   1.085       .  S
C74         C299   1.442       .  S
C74          C75   1.402       .  A
C74          C79   1.402       .  A
C75          C76   1.402       .  A
C75          H80   1.085       .  S
C76         C307   1.442       .  S
C76          C77   1.402       .  A
C77          C78   1.402       .  A
C77          H81   1.085       .  S
C78         C302   1.442       .  S
C78          C79   1.402       .  A
C79          H82   1.085       .  S
C83         C296   1.442       .  S
C83          C84   1.402       .  A
C83          C88   1.402       .  A
C84          C85   1.402       .  A
C84          H89   1.084       .  S
C85         C331   1.442       .  S
C85          C86   1.402       .  A
C86          C87   1.402       .  A
C86          H90   1.085       .  S
C87         C298   1.442       .  S
C87          C88   1.402       .  A
C88          H91   1.085       .  S
C92         C294   1.442       .  S
C92          C93   1.402       .  A
C92          C97   1.402       .  A
C93          C94   1.402       .  A
C93          H98   1.085       .  S
C94         C297   1.442       .  S
C94          C95   1.402       .  A
C95          C96   1.402       .  A
C95          H99   1.085       .  S
C96         C312   1.442       .  S
C96          C97   1.402       .  A
C97         H100   1.085       .  S
C101        C290   1.442       .  S
C101        C102   1.402       .  A
C101        C106   1.402       .  A
C102        C103   1.402       .  A
C102        H107   1.085       .  S
C103        C291   1.442       .  S
C103        C104   1.402   1_655  A
C104        C105   1.402       .  A
C104        H108   1.085       .  S
C105        C287   1.442       .  S
C105        C106   1.402   1_455  A
C106        H109   1.085       .  S
C110        C285   1.442       .  S
C110        C111   1.402       .  A
C110        C115   1.402       .  A
C111        C112   1.402       .  A
C111        H116   1.085       .  S
C112        C292   1.442       .  S
C112        C113   1.402   1_655  A
C113        C114   1.402       .  A
C113        H117   1.085       .  S
C114        C283   1.442       .  S
C114        C115   1.402   1_455  A
C115        H118   1.085       .  S
C119        C329   1.442       .  S
C119        C120   1.402       .  A
C119        C124   1.402       .  A
C120        C121   1.402       .  A
C120        H125   1.085       .  S
C121        C281   1.442       .  S
C121        C122   1.402   1_565  A
C122        C123   1.402       .  A
C122        H126   1.085       .  S
C123        C280   1.442       .  S
C123        C124   1.402   1_545  A
C124        H127   1.084       .  S
C128        C310   1.442       .  S
C128        C129   1.402       .  A
C128        C133   1.402   1_565  A
C129        C130   1.402       .  A
C129        H134   1.085       .  S
C130        C282   1.442       .  S
C130        C131   1.402   1_565  A
C131        C132   1.402       .  A
C131        H135   1.085       .  S
C132        C278   1.442       .  S
C132        C133   1.402       .  A
C133        H136   1.085       .  S
O137       Ni145   1.919       .  S
O137        C147   1.280       .  A
O138       Ni145   1.919       .  S
O138        C148   1.280       .  A
O139       Ni145   1.919       .  S
O139        C149   1.280       .  A
O140       Ni145   1.919       .  S
O140        C150   1.280       .  A
O141       Ni146   1.919       .  S
O141        C150   1.280       .  A
O142       Ni146   1.919       .  S
O142        C149   1.280       .  A
O143       Ni146   1.919       .  S
O143        C148   1.280       .  A
O144       Ni146   1.919       .  S
O144        C147   1.280       .  A
Ni145      Ni146   2.393       .  S
C147        C277   1.437       .  S
C148        C293   1.437       .  S
C149        C284   1.437       .  S
C150        C300   1.437       .  S
O151       Ni159   1.919       .  S
O151        C161   1.280       .  A
O152       Ni159   1.919       .  S
O152        C162   1.280       .  A
O153       Ni159   1.919       .  S
O153        C163   1.280       .  A
O154       Ni159   1.919       .  S
O154        C164   1.280       .  A
O155       Ni160   1.919       .  S
O155        C164   1.280       .  A
O156       Ni160   1.919       .  S
O156        C163   1.280       .  A
O157       Ni160   1.919       .  S
O157        C162   1.280       .  A
O158       Ni160   1.919       .  S
O158        C161   1.280       .  A
Ni159      Ni160   2.393       .  S
C161        C288   1.437       .  S
C162        C303   1.437       .  S
C163        C279   1.437       .  S
C164        C295   1.437       .  S
O165       Ni173   1.919       .  S
O165        C175   1.280       .  A
O166       Ni173   1.919       .  S
O166        C176   1.280       .  A
O167       Ni173   1.919       .  S
O167        C177   1.280       .  A
O168       Ni173   1.919       .  S
O168        C178   1.280       .  A
O169       Ni174   1.919       .  S
O169        C178   1.280       .  A
O170       Ni174   1.919       .  S
O170        C177   1.280       .  A
O171       Ni174   1.919       .  S
O171        C176   1.280       .  A
O172       Ni174   1.919       .  S
O172        C175   1.280       .  A
Ni173      Ni174   2.393       .  S
C175        C275   1.437       .  S
C176        C274   1.437       .  S
C177        C289   1.437       .  S
C178        C306   1.437       .  S
C179        C270   1.442       .  S
C179        C180   1.402       .  A
C179        C184   1.402       .  A
C180        C181   1.402       .  A
C180        H185   1.084       .  S
C181        C273   1.442       .  S
C181        C182   1.402       .  A
C182        C183   1.402       .  A
C182        H186   1.085       .  S
C183        C272   1.442       .  S
C183        C184   1.402       .  A
C184        H187   1.085       .  S
C188        C268   1.442       .  S
C188        C189   1.402       .  A
C188        C193   1.402       .  A
C189        C190   1.402       .  A
C189        H194   1.085       .  S
C190        C266   1.442       .  S
C190        C191   1.402       .  A
C191        C192   1.402       .  A
C191        H195   1.085       .  S
C192        C271   1.442       .  S
C192        C193   1.402       .  A
C193        H196   1.085       .  S
C197        C276   1.442       .  S
C197        C198   1.402       .  A
C197        C202   1.402   1_545  A
C198        C199   1.402   1_545  A
C198        H203   1.084       .  S
C199        C263   1.442       .  S
C199        C200   1.402       .  A
C200        C201   1.402       .  A
C200        H204   1.085       .  S
C201        C261   1.442       .  S
C201        C202   1.402       .  A
C202        H205   1.085       .  S
C206        C257   1.442       .  S
C206        C207   1.402       .  A
C206        C211   1.402       .  A
C207        C208   1.402   1_545  A
C207        H212   1.085       .  S
C208        C259   1.442       .  S
C208        C209   1.402       .  A
C209        C210   1.402   1_565  A
C209        H213   1.085       .  S
C210        C264   1.442   1_545  S
C210        C211   1.402       .  A
C211        H214   1.085       .  S
O215       Ni223   1.919       .  S
O215        C225   1.280       .  A
O216       Ni223   1.919       .  S
O216        C226   1.280       .  A
O217       Ni223   1.919       .  S
O217        C227   1.280       .  A
O218       Ni223   1.919       .  S
O218        C228   1.280       .  A
O219       Ni224   1.919       .  S
O219        C228   1.280       .  A
O220       Ni224   1.919       .  S
O220        C227   1.280       .  A
O221       Ni224   1.919       .  S
O221        C226   1.280       .  A
O222       Ni224   1.919       .  S
O222        C225   1.280       .  A
Ni223      Ni224   2.393       .  S
C225        C301   1.437       .  S
C226        C286   1.437       .  S
C227        C265   1.437       .  S
C228        C258   1.437       .  S
O229       Ni237   1.919       .  S
O229        C239   1.280       .  A
O230       Ni237   1.919       .  S
O230        C240   1.280       .  A
O231       Ni237   1.919       .  S
O231        C241   1.280       .  A
O232       Ni237   1.919       .  S
O232        C242   1.280       .  A
O233       Ni238   1.919       .  S
O233        C242   1.280       .  A
O234       Ni238   1.919       .  S
O234        C241   1.280       .  A
O235       Ni238   1.919       .  S
O235        C240   1.280       .  A
O236       Ni238   1.919       .  S
O236        C239   1.280       .  A
Ni237      Ni238   2.393       .  S
C239        C262   1.437       .  S
C240        C269   1.437       .  S
C241        C318   1.437       .  S
C242        C326   1.437       .  S
O243       Ni251   1.919       .  S
O243        C253   1.280       .  A
O244       Ni251   1.919       .  S
O244        C254   1.280       .  A
O245       Ni251   1.919       .  S
O245        C255   1.280       .  A
O246       Ni251   1.919       .  S
O246        C256   1.280       .  A
O247       Ni252   1.919       .  S
O247        C256   1.280       .  A
O248       Ni252   1.919       .  S
O248        C255   1.280       .  A
O249       Ni252   1.919       .  S
O249        C254   1.280       .  A
O250       Ni252   1.919       .  S
O250        C253   1.280       .  A
Ni251      Ni252   2.393       .  S
C253        C324   1.437       .  S
C254        C315   1.437       .  S
C255        C267   1.437       .  S
C256        C260   1.437       .  S
C257        C258   1.207       .  T
C259        C260   1.207       .  T
C261        C262   1.207       .  T
C263        C264   1.207       .  T
C265        C266   1.207       .  T
C267        C268   1.207       .  T
C269        C270   1.207       .  T
C271        C272   1.207   1_556  T
C273        C274   1.207       .  T
C275        C276   1.207       .  T
C277        C278   1.207       .  T
C279        C280   1.207       .  T
C281        C282   1.207       .  T
C283        C284   1.207       .  T
C285        C286   1.207       .  T
C287        C288   1.207       .  T
C289        C290   1.207       .  T
C291        C292   1.207       .  T
C293        C294   1.207       .  T
C295        C296   1.207       .  T
C297        C298   1.207   1_556  T
C299        C300   1.207       .  T
C301        C302   1.207       .  T
C303        C304   1.207       .  T
C305        C306   1.207       .  T
C307        C308   1.207   1_556  T
C309        C310   1.207       .  T
C311        C312   1.207       .  T
C313        C314   1.207       .  T
C315        C316   1.207       .  T
C317        C318   1.207       .  T
C319        C320   1.207       .  T
C321        C322   1.207       .  T
C323        C324   1.207       .  T
C325        C326   1.207       .  T
C327        C328   1.207   1_556  T
C329        C330   1.207       .  T
C331        C332   1.207       .  T
C333        C334   1.207       .  T
C335        C336   1.207       .  T
