geometry optimzed in LAMMPS
_audit_creation_date              2020-12-01 
_audit_creation_method            'lammps2cif' 
_symmetry_space_group_name_H-M    'P1' 
_symmetry_Int_Tables_number       1 
_symmetry_cell_setting            triclinic 
loop_ 
_symmetry_equiv_pos_as_xyz 
  x,y,z 
_cell_length_a                    24.25501814 
_cell_length_b                    32.589125848024544 
_cell_length_c                    18.01323090173897 
_cell_angle_alpha                 89.12675225901795 
_cell_angle_beta                  89.9207100320061 
_cell_angle_gamma                 91.35128452509873 
loop_ 
_atom_site_label 
_atom_site_type_symbol 
_atom_site_fract_x 
_atom_site_fract_y 
_atom_site_fract_z 
_atom_site_charge 
C1          C  0.50876457  0.93921766  0.09340888     0.01800
C2          C  0.25860051  0.94062440  0.26107031     0.01800
O3          O  0.18793999  0.74131715  0.22591070    -0.53600
C4          C  0.34244751  0.73916595  0.26126195     0.79100
O5          O  0.25014727  0.80674925  0.40250254    -0.54700
C6          C  0.14437683  0.74059977  0.26447476     0.79000
C7          C  0.24275149  0.65510940  0.34915591     0.81400
Cd8        Cd  0.24415406  0.74166146  0.32859883     1.37500
O9          O  0.29862246  0.74070666  0.22348839    -0.53600
O10         O  0.24248873  0.67379633  0.28734326    -0.52400
C11         C  0.25149365  0.82853596  0.34271389     0.81400
O12         O  0.24322349  0.67689342  0.40781466    -0.54700
O13         O  0.33997727  0.73918297  0.33187663    -0.53200
O14         O  0.14752011  0.74130756  0.33500900    -0.53200
O15         O  0.24914931  0.80951494  0.28217253    -0.52400
O16         O  0.04871001  0.73787598  0.26635520    -0.53600
C17         C  0.39408539  0.73755769  0.22446150     0.79100
O18         O  0.99951070  0.80074209  0.08248574    -0.54700
C19         C  0.09251699  0.73876657  0.22815574     0.79000
C20         C  0.49293373  0.64920231  0.14617161     0.81400
Cd21       Cd  0.99381281  0.73629757  0.16190415     1.37500
O22         O  0.43764762  0.73617227  0.26270068    -0.53600
O23         O  0.99475235  0.66829167  0.20864902    -0.52400
C24         C  0.99930475  0.82274598  0.14085521     0.81400
O25         O  0.99195353  0.67124085  0.08834689    -0.54700
O26         O  0.39705247  0.73766292  0.15386737    -0.53200
O27         O  0.08981627  0.73784280  0.15759909    -0.53200
O28         O  0.49516470  0.80391852  0.20131770    -0.52400
C29         C  0.49406434  0.53701648  0.22699492     0.01800
C30         C  0.24373004  0.53822838  0.39448186     0.01800
C31         C  0.00322976  0.03811525  0.75942349     0.01800
C32         C  0.25300834  0.04060383  0.58888491     0.01800
O33         O  0.30584137  0.23649584  0.77272816    -0.53600
C34         C  0.15270526  0.24118616  0.73770231     0.79100
O35         O  0.24909610  0.30693497  0.59149657    -0.54700
C36         C  0.34994269  0.23727854  0.73528680     0.79000
C37         C  0.24869603  0.15601359  0.63870550     0.81400
Cd38       Cd  0.25119106  0.24148015  0.66766401     1.37500
O39         O  0.19696778  0.23960427  0.77443926    -0.53600
O40         O  0.24370217  0.17208012  0.70146390    -0.52400
C41         C  0.25273319  0.32837825  0.65031379     0.81400
O42         O  0.25332101  0.18021730  0.58225854    -0.54700
O43         O  0.15471327  0.24293801  0.66712217    -0.53200
O44         O  0.34774707  0.24052589  0.66488538    -0.53200
O45         O  0.25763427  0.30906685  0.71115351    -0.52400
O46         O  0.05721545  0.24010195  0.73759737    -0.53600
C47         C  0.40150440  0.23510122  0.77233170     0.79100
O48         O  0.49993785  0.16731474  0.90840604    -0.54700
C49         C  0.10107809  0.24014340  0.77535370     0.79000
C50         C  0.49557495  0.32095877  0.85883551     0.81400
Cd51       Cd  0.00120962  0.23463672  0.84044144     1.37500
O52         O  0.44549381  0.23681163  0.73456693    -0.53600
O53         O  0.99568900  0.30256202  0.79885767    -0.52400
C54         C  0.00333421  0.14730418  0.84808991     0.81400
O55         O  0.99925136  0.29854003  0.91934260    -0.54700
O56         O  0.40395106  0.23202982  0.84282900    -0.53200
O57         O  0.09834863  0.23849685  0.84600180    -0.53200
O58         O  0.50313598  0.16884103  0.78801297    -0.52400
C59         C  0.49634550  0.43777552  0.89869643     0.01800
C60         C  0.24739751  0.43957273  0.72853483     0.01800
C61         C  0.04852667  0.44858328  0.85601993    -0.14300
C62         C  0.09433499  0.45176233  0.82751571     0.09800
C63         C  0.14929905  0.45148479  0.79693913     0.11700
C64         C  0.19520751  0.44836522  0.76945773    -0.15100
C65         C  0.29844596  0.45043742  0.77136850    -0.14300
C66         C  0.34401281  0.45373626  0.80011905     0.09800
C67         C  0.39879591  0.45315943  0.83092257     0.11700
C68         C  0.44451788  0.44904724  0.85839844    -0.15100
C69         C  0.49515523  0.39158396  0.91352267    -0.12200
C70         C  0.49314271  0.36602661  0.85593780    -0.27400
H71         H  0.99781302  0.37942139  0.97044980     0.16800
H72         H  0.49106301  0.37949886  0.80033043     0.17400
C73         C  0.25080193  0.37379801  0.65061633    -0.12200
C74         C  0.24835832  0.39353853  0.71645267    -0.27400
H75         H  0.25095713  0.39044270  0.59810751     0.16800
H76         H  0.24761870  0.37520258  0.76739097     0.17400
C77         C  0.25326359  0.08706673  0.57766263    -0.12200
C78         C  0.24944905  0.11093788  0.63739974    -0.27400
H79         H  0.25588018  0.10092875  0.52235971     0.16800
H80         H  0.24665999  0.09589006  0.69175294     0.17400
C81         C  0.00446291  0.08389680  0.77539734    -0.12200
C82         C  0.00344288  0.10189803  0.84309132    -0.27400
H83         H  0.00523240  0.10358692  0.72610121     0.16800
H84         H  0.50131805  0.08436389  0.89417643     0.17400
C85         C  0.19985291  0.02811227  0.62695381    -0.14300
C86         C  0.15352155  0.02480438  0.65388931     0.09800
C87         C  0.09874290  0.02562675  0.68502247     0.11700
C88         C  0.05365266  0.02924447  0.71465307    -0.15100
C89         C  0.45008518  0.02870804  0.71924816    -0.14300
C90         C  0.40408730  0.02569718  0.69148884     0.09800
C91         C  0.34923809  0.02596237  0.66057431     0.11700
C92         C  0.30379942  0.02961562  0.63188583    -0.15100
C93         C  0.24783422  0.46312705  0.65782220    -0.14300
C94         C  0.24727293  0.48080341  0.59832840     0.09800
C95         C  0.24593963  0.50032657  0.52762061     0.11700
C96         C  0.24469696  0.51699359  0.46724520    -0.15100
C97         C  0.49489906  0.51409160  0.15690493    -0.14300
C98         C  0.49625110  0.49640369  0.09841707     0.09800
C99         C  0.49749985  0.47646173  0.02913920     0.11700
C100        C  0.49762943  0.45935614  0.97002805    -0.15100
C101        C  0.29493650  0.52761672  0.35280818    -0.14300
C102        C  0.34057799  0.52374377  0.32512698     0.09800
C103        C  0.39564568  0.52321341  0.29527094     0.11700
C104        C  0.44179333  0.52642129  0.26796371    -0.15100
C105        C  0.19131350  0.52633474  0.35534420    -0.14300
C106        C  0.14522073  0.52256463  0.32844570     0.09800
C107        C  0.09027492  0.52280687  0.29836860     0.11700
C108        C  0.04480326  0.52655039  0.27008489    -0.15100
C109        C  0.49283979  0.60368437  0.14777166    -0.12200
C110        C  0.49481630  0.58323238  0.21401515    -0.27400
H111        H  0.49076728  0.58747424  0.09577012     0.16800
H112        H  0.99586427  0.60065168  0.26576624     0.17400
C113        C  0.24262710  0.60998652  0.34744623    -0.12200
C114        C  0.24407582  0.58441062  0.40635328    -0.27400
H115        H  0.24152449  0.59667423  0.29240331     0.16800
H116        H  0.24523556  0.59687627  0.46203620     0.17400
C117        C  0.25925311  0.96399379  0.33079385    -0.14300
C118        C  0.25881240  0.98244195  0.38859612     0.09800
C119        C  0.25716751  0.00320312  0.45716137     0.11700
C120        C  0.25522087  0.02033219  0.51624170    -0.15100
C121        C  0.25686738  0.89443871  0.27463051    -0.12200
C122        C  0.25527721  0.87406797  0.34104625    -0.27400
H123        H  0.25618778  0.87651552  0.22416157     0.16800
H124        H  0.25605884  0.89036543  0.39306459     0.18600
C125        C  0.00456836  0.01304877  0.82842610    -0.14300
C126        C  0.00650720  0.99499218  0.88750218     0.09800
C127        C  0.00849937  0.97587614  0.95858056     0.11700
C128        C  0.00917429  0.95986149  0.01958429    -0.15100
C129        C  0.00316492  0.86783696  0.14187117    -0.12200
C130        C  0.00588745  0.89300119  0.08236675    -0.27400
H131        H  0.00332698  0.88148171  0.19665693     0.16800
H132        H  0.50627703  0.88037558  0.02650068     0.17400
C133        C  0.20736048  0.95075305  0.21889569    -0.14300
C134        C  0.16165430  0.95407669  0.19097492     0.09800
C135        C  0.10666709  0.95394236  0.16074366     0.11700
C136        C  0.06069474  0.95026029  0.13328729    -0.15100
C137        C  0.45728121  0.95099484  0.13337079    -0.14300
C138        C  0.41138754  0.95461643  0.16046296     0.09800
C139        C  0.35633266  0.95432767  0.19056082     0.11700
C140        C  0.31047644  0.95071446  0.21869621    -0.15100
C141        C  0.00832914  0.93925709  0.09304581     0.01800
C142        C  0.75880555  0.94035963  0.26237686     0.01800
O143        O  0.68819390  0.74095005  0.22408942    -0.53600
C144        C  0.84230603  0.73931830  0.26169395     0.79100
O145        O  0.74992282  0.80612874  0.40272387    -0.54700
C146        C  0.64440902  0.73994987  0.26217738     0.79000
C147        C  0.74408764  0.65475957  0.34918380     0.81400
Cd148      Cd  0.74384015  0.74128070  0.32798737     1.37500
O149        O  0.79867970  0.74060368  0.22342569    -0.53600
O150        O  0.74614140  0.67337835  0.28733574    -0.52400
C151        C  0.75160473  0.82809876  0.34316589     0.81400
O152        O  0.74179506  0.67660301  0.40762982    -0.54700
O153        O  0.83948684  0.73941052  0.33229124    -0.53200
O154        O  0.64720201  0.74034124  0.33272635    -0.53200
O155        O  0.74935723  0.80926889  0.28243348    -0.52400
O156        O  0.54880165  0.73715147  0.26367067    -0.53600
C157        C  0.89411827  0.73779078  0.22547964     0.79100
O158        O  0.49969532  0.80076015  0.08095159    -0.54700
C159        C  0.59262844  0.73825660  0.22553609     0.79000
C160        C  0.99331474  0.64936380  0.14795143     0.81400
Cd161      Cd  0.49360582  0.73608598  0.15972309     1.37500
O162        O  0.93743502  0.73635211  0.26422258    -0.53600
O163        O  0.49525610  0.66830808  0.20662833    -0.52400
C164        C  0.49917811  0.82254902  0.13958637     0.81400
O165        O  0.49078473  0.67089746  0.08639597    -0.54700
O166        O  0.89746590  0.73793987  0.15492031    -0.53200
O167        O  0.58993374  0.73773143  0.15494532    -0.53200
O168        O  0.99572962  0.80432581  0.20283301    -0.52400
C169        C  0.99402978  0.53678478  0.22710888     0.01800
C170        C  0.74386325  0.53789948  0.39486806     0.01800
C171        C  0.50264041  0.03824600  0.76002565     0.01800
C172        C  0.75289591  0.04049896  0.59004224     0.01800
O173        O  0.80624759  0.23635718  0.77396523    -0.53600
C174        C  0.65277651  0.24047823  0.73668518     0.79100
O175        O  0.75041640  0.30688361  0.59231741    -0.54700
C176        C  0.85049628  0.23707996  0.73683410     0.79000
C177        C  0.74993132  0.15598045  0.63934084     0.81400
Cd178      Cd  0.75195319  0.24135778  0.66830402     1.37500
O179        O  0.69677224  0.23928595  0.77407245    -0.53600
O180        O  0.74541332  0.17205564  0.70215999    -0.52400
C181        C  0.75286132  0.32827830  0.65128003     0.81400
O182        O  0.75412235  0.18015589  0.58279186    -0.54700
O183        O  0.65533712  0.24196410  0.66612573    -0.53200
O184        O  0.84855532  0.24048357  0.66643618    -0.53200
O185        O  0.75676028  0.30892373  0.71223154    -0.52400
O186        O  0.55719755  0.23955333  0.73559389    -0.53600
C187        C  0.90196290  0.23467408  0.77414846     0.79100
O188        O  0.99937614  0.16662625  0.90924266    -0.54700
C189        C  0.60088333  0.23955549  0.77371453     0.79000
C190        C  0.99622000  0.32073569  0.86014046     0.81400
Cd191      Cd  0.50066981  0.23492953  0.83845842     1.37500
O192        O  0.94601824  0.23618268  0.73655406    -0.53600
O193        O  0.49553646  0.30299917  0.79733932    -0.52400
C194        C  0.50183152  0.14769139  0.84736546     0.81400
O195        O  0.49822440  0.29857267  0.91782886    -0.54700
O196        O  0.90430182  0.23164610  0.84465275    -0.53200
O197        O  0.59777826  0.23820715  0.84431428    -0.53200
O198        O  0.00685701  0.16876183  0.78920964    -0.52400
C199        C  0.99671941  0.43775265  0.89852675     0.01800
C200        C  0.74723261  0.43950502  0.72930333     0.01800
C201        C  0.54828601  0.44861890  0.85649912    -0.14300
C202        C  0.59416530  0.45179778  0.82819949     0.09800
C203        C  0.64917620  0.45151839  0.79776156     0.11700
C204        C  0.69509330  0.44837972  0.77030278    -0.15100
C205        C  0.79838639  0.45030130  0.77199637    -0.14300
C206        C  0.84405128  0.45349673  0.80052355     0.09800
C207        C  0.89893972  0.45283880  0.83102340     0.11700
C208        C  0.94474635  0.44876685  0.85829173    -0.15100
C209        C  0.99578456  0.39160598  0.91393465    -0.12200
C210        C  0.99386017  0.36581086  0.85670082    -0.27400
H211        H  0.49714419  0.37917613  0.96988618     0.16800
H212        H  0.99172290  0.37906988  0.80093354     0.17400
C213        C  0.75081632  0.37369411  0.65154780    -0.12200
C214        C  0.74807134  0.39345788  0.71733168    -0.27400
H215        H  0.75134101  0.39032424  0.59904301     0.16800
H216        H  0.74714636  0.37515116  0.76828336     0.17400
C217        C  0.75346411  0.08693386  0.57845373    -0.12200
C218        C  0.75052657  0.11091684  0.63813049    -0.27400
H219        H  0.75563347  0.10067722  0.52301683     0.16800
H220        H  0.74818976  0.09594841  0.69259986     0.17400
C221        C  0.50334340  0.08405221  0.77553752    -0.12200
C222        C  0.50234435  0.10228015  0.84301538    -0.27400
H223        H  0.50378640  0.10355468  0.72601643     0.16800
H224        H  0.00172905  0.08378314  0.89402349     0.17400
C225        C  0.69977882  0.02831950  0.62854801    -0.14300
C226        C  0.65344189  0.02515067  0.65553306     0.09800
C227        C  0.59857190  0.02599124  0.68641324     0.11700
C228        C  0.55332458  0.02953257  0.71566411    -0.15100
C229        C  0.95048358  0.02888916  0.71888990    -0.14300
C230        C  0.90436839  0.02584931  0.69150763     0.09800
C231        C  0.84936908  0.02593669  0.66109203     0.11700
C232        C  0.80379130  0.02946520  0.63276539    -0.15100
C233        C  0.74763153  0.46300831  0.65850822    -0.14300
C234        C  0.74704403  0.48060105  0.59891893     0.09800
C235        C  0.74572956  0.50002812  0.52809724     0.11700
C236        C  0.74457587  0.51665301  0.46766161    -0.15100
C237        C  0.99492264  0.51419345  0.15663459    -0.14300
C238        C  0.99639799  0.49667408  0.09797347     0.09800
C239        C  0.99781093  0.47678043  0.02864131     0.11700
C240        C  0.99802666  0.45958645  0.96961047    -0.15100
C241        C  0.79502081  0.52704616  0.35324019    -0.14300
C242        C  0.84060570  0.52312655  0.32538980     0.09800
C243        C  0.89562017  0.52265531  0.29529868     0.11700
C244        C  0.94173933  0.52597872  0.26790940    -0.15100
C245        C  0.69136577  0.52632249  0.35560594    -0.14300
C246        C  0.64524453  0.52281657  0.32866496     0.09800
C247        C  0.59031120  0.52324752  0.29851067     0.11700
C248        C  0.54486500  0.52698822  0.27012258    -0.15100
C249        C  0.99329849  0.60384234  0.14898792    -0.12200
C250        C  0.99482201  0.58307194  0.21491900    -0.27400
H251        H  0.99167367  0.58785966  0.09668997     0.16800
H252        H  0.49613393  0.60103991  0.26455413     0.17400
C253        C  0.74417168  0.60964023  0.34770116    -0.12200
C254        C  0.74453519  0.58408992  0.40670271    -0.27400
H255        H  0.74404493  0.59628380  0.29266017     0.16800
H256        H  0.74496781  0.59657674  0.46240285     0.17400
C257        C  0.75928018  0.96359483  0.33224858    -0.14300
C258        C  0.75856881  0.98198392  0.39010366     0.09800
C259        C  0.75667826  0.00277763  0.45861711     0.11700
C260        C  0.75474147  0.02002470  0.51757890    -0.15100
C261        C  0.75728705  0.89415354  0.27565396    -0.12200
C262        C  0.75555802  0.87362954  0.34192144    -0.27400
H263        H  0.75675346  0.87634724  0.22504962     0.16800
H264        H  0.75618024  0.88980068  0.39407237     0.18600
C265        C  0.50405164  0.01338373  0.82925128    -0.14300
C266        C  0.50633261  0.99541687  0.88837920     0.09800
C267        C  0.50882750  0.97626814  0.95937565     0.11700
C268        C  0.50976289  0.96010643  0.02023220    -0.15100
C269        C  0.50318400  0.86761887  0.14121313    -0.12200
C270        C  0.50630826  0.89301781  0.08207515    -0.27400
H271        H  0.50308248  0.88104024  0.19618695     0.16800
H272        H  0.00560209  0.88012891  0.02697503     0.17400
C273        C  0.70751805  0.95042099  0.22025257    -0.14300
C274        C  0.66183033  0.95372745  0.19226689     0.09800
C275        C  0.60690553  0.95363087  0.16182315     0.11700
C276        C  0.56101414  0.95003795  0.13408344    -0.15100
C277        C  0.95696955  0.95115824  0.13319536    -0.14300
C278        C  0.91122071  0.95478368  0.16074916     0.09800
C279        C  0.85634262  0.95441251  0.19147462     0.11700
C280        C  0.81061827  0.95067077  0.21998006    -0.15100
loop_ 
_geom_bond_atom_site_label_1 
_geom_bond_atom_site_label_2 
_geom_bond_distance 
_geom_bond_site_symmetry_2 
_ccdc_geom_bond_type 
C1          C137   1.501       .  S
C1          C268   1.474       .  S
C1          C276   1.502       .  S
C1          C270   1.522       .  S
C2          C117   1.479       .  S
C2          C133   1.498       .  S
C2          C140   1.498       .  S
C2          C121   1.521       .  S
O3            C6   1.263       .  A
O3           Cd8   2.299       .  S
C4           O13   1.273       .  A
C4            O9   1.264       .  A
C4           C17   1.419       .  S
O5           C11   1.281       .  A
O5           Cd8   2.523       .  S
C6           O14   1.273       .  A
C6           C19   1.419       .  S
C7           O12   1.282       .  A
C7           O10   1.261       .  A
C7          C113   1.471       .  S
Cd8          O15   2.353       .  S
Cd8          O14   2.346       .  S
Cd8          O13   2.328       .  S
Cd8           O9   2.308       .  S
Cd8          O12   2.529       .  S
Cd8          O10   2.343       .  S
C11          O15   1.263       .  A
C11         C122   1.484       .  S
O16          C19   1.265       .  A
O16         Cd21   2.307   1_455  S
C17          O26   1.274       .  A
C17          O22   1.263       .  A
O18          C24   1.282       .  A
O18         Cd21   2.524       .  S
C19          O27   1.274       .  A
C20         O165   1.281       .  A
C20         O163   1.263       .  A
C20         C109   1.483       .  S
Cd21         O27   2.329   1_655  S
Cd21         O25   2.517       .  S
Cd21         O23   2.359       .  S
Cd21        O168   2.346       .  S
Cd21        O166   2.342       .  S
Cd21        O162   2.293       .  S
O22        Cd161   2.297       .  S
O23         C160   1.264       .  A
C24         O168   1.261       .  A
C24         C129   1.471   1_655  S
O25         C160   1.281       .  A
O26        Cd161   2.346       .  S
O28         C164   1.261       .  A
O28        Cd161   2.344       .  S
C29          C97   1.477       .  S
C29         C104   1.497       .  S
C29         C248   1.497       .  S
C29         C110   1.520       .  S
C30          C96   1.473       .  S
C30         C101   1.500       .  S
C30         C105   1.500       .  S
C30         C114   1.523       .  S
C31          C88   1.500       .  S
C31         C125   1.478       .  S
C31         C229   1.500   1_455  S
C31          C81   1.523       .  S
C32          C85   1.504       .  S
C32          C92   1.504       .  S
C32         C120   1.476       .  S
C32          C77   1.524       .  S
O33          C36   1.263       .  A
O33         Cd38   2.318       .  S
C34          O43   1.273       .  A
C34          O39   1.264       .  A
C34          C49   1.423       .  S
O35          C41   1.280       .  A
O35         Cd38   2.520       .  S
C36          O44   1.272       .  A
C36          C47   1.421       .  S
C37          O42   1.281       .  A
C37          O40   1.260       .  A
C37          C78   1.470       .  S
Cd38         O45   2.351       .  S
Cd38         O44   2.343       .  S
Cd38         O43   2.342       .  S
Cd38         O39   2.328       .  S
Cd38         O42   2.540       .  S
Cd38         O40   2.336       .  S
C41          O45   1.263       .  A
C41          C73   1.482       .  S
O46          C49   1.263       .  A
O46         Cd51   2.298       .  S
C47          O56   1.274       .  A
C47          O52   1.264       .  A
O48         C194   1.282       .  A
O48        Cd191   2.521       .  S
C49          O57   1.274       .  A
C50         O195   1.282       .  A
C50         O193   1.261       .  A
C50          C70   1.471       .  S
Cd51         O57   2.359       .  S
Cd51         O55   2.540   1_455  S
Cd51         O53   2.333   1_455  S
Cd51        O188   2.522   1_455  S
Cd51        O198   2.357       .  S
Cd51        O196   2.351   1_455  S
Cd51        O192   2.303   1_455  S
O52        Cd191   2.303       .  S
O53         C190   1.261       .  A
C54         O188   1.282   1_455  A
C54         O198   1.263       .  A
C54          C82   1.484       .  S
O55         C190   1.283       .  A
O56        Cd191   2.347       .  S
O58         C194   1.263       .  A
O58        Cd191   2.352       .  S
C59          C68   1.503       .  S
C59         C100   1.474       .  S
C59         C201   1.503       .  S
C59          C69   1.524       .  S
C60          C64   1.500       .  S
C60          C65   1.498       .  S
C60          C93   1.477       .  S
C60          C74   1.520       .  S
C61         C199   1.503   1_455  S
C61          C62   1.225       .  T
C62          C63   1.442       .  S
C63          C64   1.225       .  T
C65          C66   1.224       .  T
C66          C67   1.441       .  S
C67          C68   1.224       .  T
C69          C70   1.340       .  D
C69         H211   1.089       .  S
C70          H72   1.089       .  S
H71         C209   1.089       .  S
C73          C74   1.360       .  D
C73          H75   1.083       .  S
C74          H76   1.087       .  S
C77          C78   1.342       .  D
C77          H79   1.089       .  S
C78          H80   1.090       .  S
C81          C82   1.362       .  D
C81          H83   1.087       .  S
C82         H224   1.084       .  S
H84         C222   1.083       .  S
C85          C86   1.225       .  T
C86          C87   1.442       .  S
C87          C88   1.225       .  T
C89         C171   1.501       .  S
C89          C90   1.226       .  T
C90          C91   1.443       .  S
C91          C92   1.225       .  T
C93          C94   1.209       .  T
C94          C95   1.416       .  S
C95          C96   1.209       .  T
C97          C98   1.209       .  T
C98          C99   1.416       .  S
C99         C100   1.209   1_554  T
C101        C102   1.224       .  T
C102        C103   1.440       .  S
C103        C104   1.224       .  T
C105        C106   1.223       .  T
C106        C107   1.439       .  S
C107        C108   1.223       .  T
C108        C169   1.497   1_455  S
C109        C110   1.359       .  D
C109        H111   1.083       .  S
C110        H252   1.087       .  S
H112        C250   1.088       .  S
C113        C114   1.340       .  D
C113        H115   1.088       .  S
C114        H116   1.088       .  S
C117        C118   1.210       .  T
C118        C119   1.418   1_565  S
C119        C120   1.211       .  T
C121        C122   1.359       .  D
C121        H123   1.088       .  S
C122        H124   1.084       .  S
C125        C126   1.210   1_545  T
C126        C127   1.417       .  S
C127        C128   1.210   1_556  T
C128        C141   1.475       .  S
C129        C130   1.340       .  D
C129        H131   1.089       .  S
C130        C141   1.522       .  S
C130        H272   1.088       .  S
H132        C270   1.088       .  S
C133        C134   1.224       .  T
C134        C135   1.441       .  S
C135        C136   1.224       .  T
C136        C141   1.502       .  S
C137        C138   1.224       .  T
C138        C139   1.440       .  S
C139        C140   1.224       .  T
C141        C277   1.501   1_455  S
C142        C257   1.479       .  S
C142        C273   1.498       .  S
C142        C280   1.498       .  S
C142        C261   1.521       .  S
O143        C146   1.263       .  A
O143       Cd148   2.309       .  S
C144        O153   1.273       .  A
C144        O149   1.265       .  A
C144        C157   1.417       .  S
O145        C151   1.281       .  A
O145       Cd148   2.524       .  S
C146        O154   1.273       .  A
C146        C159   1.420       .  S
C147        O152   1.282       .  A
C147        O150   1.261       .  A
C147        C253   1.471       .  S
Cd148       O155   2.352       .  S
Cd148       O154   2.345       .  S
Cd148       O153   2.324       .  S
Cd148       O149   2.305       .  S
Cd148       O152   2.531       .  S
Cd148       O150   2.343       .  S
C151        O155   1.263       .  A
C151        C262   1.484       .  S
O156        C159   1.264       .  A
O156       Cd161   2.304       .  S
C157        O166   1.273       .  A
C157        O162   1.264       .  A
O158        C164   1.282       .  A
O158       Cd161   2.524       .  S
C159        O167   1.274       .  A
C160        C249   1.483       .  S
Cd161       O167   2.337       .  S
Cd161       O165   2.518       .  S
Cd161       O163   2.354       .  S
C164        C269   1.470       .  S
C169        C237   1.478       .  S
C169        C244   1.497       .  S
C169        C250   1.521       .  S
C170        C236   1.474       .  S
C170        C241   1.501       .  S
C170        C245   1.501       .  S
C170        C254   1.523       .  S
C171        C228   1.500       .  S
C171        C265   1.478       .  S
C171        C221   1.523       .  S
C172        C225   1.505       .  S
C172        C232   1.504       .  S
C172        C260   1.476       .  S
C172        C217   1.524       .  S
O173        C176   1.263       .  A
O173       Cd178   2.322       .  S
C174        O183   1.273       .  A
C174        O179   1.264       .  A
C174        C189   1.423       .  S
O175        C181   1.280       .  A
O175       Cd178   2.520       .  S
C176        O184   1.272       .  A
C176        C187   1.422       .  S
C177        O182   1.281       .  A
C177        O180   1.260       .  A
C177        C218   1.469       .  S
Cd178       O185   2.351       .  S
Cd178       O184   2.344       .  S
Cd178       O183   2.344       .  S
Cd178       O179   2.326       .  S
Cd178       O182   2.540       .  S
Cd178       O180   2.332       .  S
C181        O185   1.263       .  A
C181        C213   1.482       .  S
O186        C189   1.263       .  A
O186       Cd191   2.304       .  S
C187        O196   1.274       .  A
C187        O192   1.264       .  A
C189        O197   1.274       .  A
C190        C210   1.472       .  S
Cd191       O197   2.358       .  S
Cd191       O195   2.539       .  S
Cd191       O193   2.334       .  S
C194        C222   1.484       .  S
C199        C208   1.503       .  S
C199        C240   1.474       .  S
C199        C209   1.525       .  S
C200        C204   1.500       .  S
C200        C205   1.498       .  S
C200        C233   1.477       .  S
C200        C214   1.520       .  S
C201        C202   1.225       .  T
C202        C203   1.442       .  S
C203        C204   1.225       .  T
C205        C206   1.225       .  T
C206        C207   1.441       .  S
C207        C208   1.225       .  T
C209        C210   1.340       .  D
C210        H212   1.089       .  S
C213        C214   1.360       .  D
C213        H215   1.083       .  S
C214        H216   1.087       .  S
C217        C218   1.341       .  D
C217        H219   1.089       .  S
C218        H220   1.090       .  S
C221        C222   1.361       .  D
C221        H223   1.087       .  S
C225        C226   1.225       .  T
C226        C227   1.443       .  S
C227        C228   1.225       .  T
C229        C230   1.226       .  T
C230        C231   1.443       .  S
C231        C232   1.225       .  T
C233        C234   1.209       .  T
C234        C235   1.416       .  S
C235        C236   1.209       .  T
C237        C238   1.210       .  T
C238        C239   1.417       .  S
C239        C240   1.210   1_554  T
C241        C242   1.224       .  T
C242        C243   1.440       .  S
C243        C244   1.224       .  T
C245        C246   1.224       .  T
C246        C247   1.440       .  S
C247        C248   1.224       .  T
C249        C250   1.359       .  D
C249        H251   1.084       .  S
C253        C254   1.340       .  D
C253        H255   1.089       .  S
C254        H256   1.088       .  S
C257        C258   1.210       .  T
C258        C259   1.418   1_565  S
C259        C260   1.211       .  T
C261        C262   1.359       .  D
C261        H263   1.088       .  S
C262        H264   1.084       .  S
C265        C266   1.210   1_545  T
C266        C267   1.416       .  S
C267        C268   1.209   1_556  T
C269        C270   1.340       .  D
C269        H271   1.089       .  S
C273        C274   1.224       .  T
C274        C275   1.441       .  S
C275        C276   1.225       .  T
C277        C278   1.224       .  T
C278        C279   1.441       .  S
C279        C280   1.224       .  T
