geometry optimzed in LAMMPS
_audit_creation_date              2020-12-01 
_audit_creation_method            'lammps2cif' 
_symmetry_space_group_name_H-M    'P1' 
_symmetry_Int_Tables_number       1 
_symmetry_cell_setting            triclinic 
loop_ 
_symmetry_equiv_pos_as_xyz 
  x,y,z 
_cell_length_a                    22.24475579 
_cell_length_b                    22.153443256779916 
_cell_length_c                    22.213212009738637 
_cell_angle_alpha                 92.10462781175494 
_cell_angle_beta                  92.05760346729211 
_cell_angle_gamma                 85.15886994133099 
loop_ 
_atom_site_label 
_atom_site_type_symbol 
_atom_site_fract_x 
_atom_site_fract_y 
_atom_site_fract_z 
_atom_site_charge 
N1          N  0.71106202  0.08646955  0.69782662    -0.26500
N2          N  0.73738167  0.04482092  0.73339479    -0.34300
C3          C  0.73181277  0.98985066  0.70649606     0.01900
C4          C  0.70189577  0.99811850  0.65112185     0.07900
C5          C  0.69008864  0.05980393  0.64728348    -0.05200
H6          H  0.74204785  0.94730427  0.72857871     0.08600
H7          H  0.65986742  0.08291686  0.61470338     0.09800
Cu8        Cu  0.76791337  0.06592641  0.82125222     0.44200
Cu9        Cu  0.68415862  0.17389003  0.72472155     0.42000
Cu10       Cu  0.67876998  0.19656092  0.88066340     0.43900
N11         N  0.78365563  0.10661462  0.90627257    -0.33900
N12         N  0.74460868  0.14807797  0.93040022    -0.28100
C13         C  0.77060206  0.17438225  0.97876559    -0.04200
C14         C  0.82958052  0.15043465  0.98478472     0.08000
C15         C  0.83641801  0.10714408  0.93820269     0.01800
H16         H  0.75238901  0.21664808  0.99959464     0.09400
H17         H  0.87863026  0.08470984  0.92322512     0.08500
N18         N  0.66978117  0.26763837  0.82267708    -0.35300
N19         N  0.66798706  0.25873680  0.76367045    -0.27500
C20         C  0.68299587  0.30868618  0.73769543    -0.02700
C21         C  0.69820245  0.35021081  0.78231483     0.05900
C22         C  0.68882855  0.32278299  0.83573892     0.04000
H23         H  0.69589395  0.30907641  0.69117218     0.09100
H24         H  0.70655822  0.33578238  0.87965763     0.07900
N25         N  0.96671695  0.90672949  0.24198812    -0.26500
N26         N  0.92528421  0.95295965  0.24674386    -0.34300
C27         C  0.91372165  0.96401693  0.30526571     0.01900
C28         C  0.94939564  0.92267258  0.33851102     0.07900
C29         C  0.98255111  0.88715625  0.29732786    -0.05200
H30         H  0.87727857  0.99506265  0.32163008     0.08600
H31         H  0.01063773  0.84593922  0.30620145     0.09800
Cu32       Cu  0.87192147  0.98560587  0.17510659     0.44200
Cu33       Cu  0.98442454  0.85857801  0.16245117     0.42000
Cu34       Cu  0.87333816  0.88626978  0.04316936     0.43900
N35         N  0.80561476  0.99132698  0.10750857    -0.33900
N36         N  0.80647362  0.95505209  0.05888630    -0.28100
C37         C  0.75127620  0.95865912  0.03205954    -0.04200
C38         C  0.71395191  0.99871164  0.06552666     0.08000
C39         C  0.74971434  0.01875204  0.11293654     0.01800
H40         H  0.73735938  0.92801609  0.99614129     0.09400
H41         H  0.73438169  0.04444276  0.15266799     0.08500
N42         N  0.92856436  0.80669212  0.04922403    -0.35300
N43         N  0.97047845  0.79717356  0.09231169    -0.27500
C44         C  0.98955127  0.73797175  0.09170697    -0.02700
C45         C  0.95800331  0.70905179  0.04626053     0.05900
C46         C  0.91964777  0.75366728  0.02024775     0.04000
H47         H  0.01880305  0.71664782  0.12615482     0.09100
H48         H  0.88374529  0.74720803  0.98706567     0.07900
N49         N  0.24431010  0.71480129  0.84458257    -0.26500
N50         N  0.21856664  0.71261304  0.89704984    -0.34300
C51         C  0.24960070  0.67007566  0.93003395     0.01900
C52         C  0.29705526  0.64489436  0.89650848     0.07900
C53         C  0.29255850  0.67396142  0.84256598    -0.05200
H54         H  0.23872619  0.65875568  0.97512925     0.08600
H55         H  0.32236464  0.66672942  0.80507493     0.09800
Cu56       Cu  0.14349594  0.76963085  0.91995179     0.44200
Cu57       Cu  0.21421200  0.77680685  0.78125089     0.42000
Cu58       Cu  0.13549946  0.91205696  0.84491024     0.43900
N59         N  0.06920935  0.83293483  0.92123353    -0.33900
N60         N  0.07003421  0.88833104  0.90132695    -0.28100
C61         C  0.01303626  0.91171517  0.89196122    -0.04200
C62         C  0.97416123  0.86797237  0.90210075     0.08000
C63         C  0.01151737  0.81910430  0.92220263     0.01800
H64         H  0.00182030  0.95037775  0.86401562     0.09400
H65         H  0.99901642  0.77310179  0.92433571     0.08500
N66         N  0.16446763  0.90442734  0.75696894    -0.35300
N67         N  0.18834720  0.85279526  0.73305570    -0.27500
C68         C  0.20162649  0.86105664  0.67577646    -0.02700
C69         C  0.18535643  0.92061053  0.66258124     0.05900
C70         C  0.16238924  0.94722088  0.71519480     0.04000
H71         H  0.22748296  0.82790834  0.64800082     0.09100
H72         H  0.14933123  0.99482172  0.72385497     0.07900
N73         N  0.12502687  0.16640093  0.35119123    -0.26500
N74         N  0.17097797  0.19961902  0.36365353    -0.34300
C75         C  0.15351113  0.24556067  0.40197490     0.01900
C76         C  0.09387679  0.24118292  0.41403310     0.07900
C77         C  0.07695830  0.19062430  0.38153934    -0.05200
H78         H  0.18165660  0.28067032  0.41809673     0.08600
H79         H  0.03260923  0.17386398  0.37854388     0.09800
Cu80       Cu  0.25253840  0.18885136  0.32169829     0.44200
Cu81       Cu  0.12654594  0.09550084  0.28654784     0.42000
Cu82       Cu  0.21009426  0.14768783  0.17228174     0.43900
N83         N  0.31320776  0.18332287  0.25345053    -0.33900
N84         N  0.29629381  0.16868274  0.19765442    -0.28100
C85         C  0.34189826  0.17463132  0.16111767    -0.04200
C86         C  0.38957484  0.19501707  0.19524248     0.08000
C87         C  0.36978703  0.20062124  0.25368899     0.01800
H88         H  0.33814628  0.17097573  0.11242745     0.09400
H89         H  0.39204858  0.22182230  0.29203399     0.08500
N90         N  0.15239845  0.08084768  0.15660120    -0.35300
N91         N  0.13353560  0.05174791  0.20212755    -0.27500
C92         C  0.13489408  0.99224643  0.18643545    -0.02700
C93         C  0.15440166  0.98419795  0.12768031     0.05900
C94         C  0.16239561  0.04190848  0.10992415     0.04000
H95         H  0.13263448  0.95692925  0.21847154     0.09100
H96         H  0.18976495  0.05188996  0.07275177     0.07900
O97         O  0.93019615  0.34991770  0.51750082    -0.72100
O98         O  0.81475065  0.39281501  0.64834150    -0.73100
O99         O  0.87920397  0.46178640  0.57227938    -0.61700
O100        O  0.86638635  0.28242088  0.59559643    -0.70100
O101        O  0.94280328  0.28226121  0.66248294    -0.69700
O102        O  0.95561357  0.45990189  0.63925814    -0.61000
O103        O  0.88987097  0.39186758  0.71712168    -0.73500
O104        O  0.00674245  0.34873300  0.58471531    -0.72200
Cu105      Cu  0.87004512  0.37213475  0.58100103     1.04600
Cu106      Cu  0.95145511  0.37107426  0.65317006     1.04300
C107        C  0.98621124  0.33972518  0.53100085     0.94100
C108        C  0.83354336  0.39771660  0.70299557     0.93200
C109        C  0.91884604  0.48935278  0.60329311     0.85300
C110        C  0.90346889  0.25386155  0.63218634     0.91600
O111        O  0.45167437  0.31176482  0.04748398    -0.72100
O112        O  0.41135794  0.45576552  0.94445885    -0.73100
O113        O  0.52153808  0.39593740  0.99185588    -0.61700
O114        O  0.34323128  0.37220643  0.99894425    -0.70100
O115        O  0.33696928  0.43110000  0.08168349    -0.69700
O116        O  0.51602414  0.45420263  0.07507697    -0.61000
O117        O  0.40593263  0.51478859  0.02755068    -0.73500
O118        O  0.44536435  0.37181678  0.12982639    -0.72200
Cu119      Cu  0.43265631  0.38180140  0.99283275     1.04600
Cu120      Cu  0.42627466  0.44514215  0.08130688     1.04300
C121        C  0.45264817  0.31920743  0.10478359     0.94100
C122        C  0.39964446  0.50747876  0.97054716     0.93200
C123        C  0.54716920  0.42816172  0.03262676     0.85300
C124        C  0.31164867  0.39856656  0.04085000     0.91600
O125        O  0.52200328  0.92327977  0.07031481    -0.72100
O126        O  0.34878882  0.88359460  0.07745493    -0.73100
O127        O  0.42945589  0.90224302  0.98283117    -0.61700
O128        O  0.44177962  0.90475085  0.16414808    -0.70100
O129        O  0.41429075  0.00335100  0.16716847    -0.69700
O130        O  0.40239183  0.00090227  0.98535093    -0.61000
O131        O  0.32227645  0.98261969  0.07959384    -0.73500
O132        O  0.49367508  0.02196892  0.07333599    -0.72200
Cu133      Cu  0.43654337  0.89998812  0.07345398     1.04600
Cu134      Cu  0.40696550  0.00555829  0.07633260     1.04300
C135        C  0.53482444  0.97844258  0.07051453     0.94100
C136        C  0.30845936  0.92795365  0.08126086     0.93200
C137        C  0.41539555  0.95141906  0.95529528     0.85300
C138        C  0.42960594  0.95423084  0.19442490     0.91600
O139        O  0.97253861  0.87763952  0.54735853    -0.72100
O140        O  0.95502268  0.86155721  0.72315696    -0.73100
O141        O  0.96706547  0.77782471  0.62394085    -0.61700
O142        O  0.95890838  0.96066867  0.64618599    -0.70100
O143        O  0.85938029  0.96507996  0.63312315    -0.69700
O144        O  0.86749994  0.78323268  0.61118531    -0.61000
O145        O  0.85501685  0.86650751  0.71280219    -0.73500
O146        O  0.87276101  0.88273317  0.53368224    -0.72200
Cu147      Cu  0.96676963  0.86907416  0.63572405     1.04600
Cu148      Cu  0.86010028  0.87434114  0.62232924     1.04300
C149        C  0.92550802  0.88426503  0.51310194     0.94100
C150        C  0.90323844  0.86197785  0.74594592     0.93200
C151        C  0.91832557  0.75164536  0.61394257     0.85300
C152        C  0.90785493  0.99183057  0.64160127     0.91600
O153        O  0.52656890  0.89452113  0.57966613    -0.72100
O154        O  0.34588348  0.90869569  0.56870169    -0.73100
O155        O  0.43820542  0.90257147  0.48262115    -0.61700
O156        O  0.43299425  0.90138703  0.66390914    -0.70100
O157        O  0.43055195  0.00169013  0.66812408    -0.69700
O158        O  0.43488524  0.00290402  0.48692513    -0.61000
O159        O  0.34281454  0.00935416  0.57370216    -0.73500
O160        O  0.52333423  0.99514396  0.58328082    -0.74800
Cu161      Cu  0.43601511  0.89828525  0.57308204     1.04600
Cu162      Cu  0.43307668  0.00574973  0.57768470     1.04300
C163        C  0.55306833  0.94333401  0.58526591     0.94100
C164        C  0.31631012  0.96052155  0.57279213     0.93200
C165        C  0.43667549  0.95296743  0.45600298     0.85300
C166        C  0.43004617  0.95147038  0.69468971     0.91600
O167        O  0.83728209  0.42388743  0.98202689    -0.72100
O168        O  0.02060391  0.39617648  0.98560337    -0.73100
O169        O  0.92181016  0.32060888  0.97990745    -0.61700
O170        O  0.93595508  0.49943113  0.98588162    -0.70100
O171        O  0.93725417  0.50014530  0.08598663    -0.69700
O172        O  0.92213422  0.31966559  0.07988530    -0.61000
O173        O  0.02109413  0.39663102  0.08538537    -0.73500
O174        O  0.83888586  0.42461273  0.08181389    -0.72200
Cu175      Cu  0.92898197  0.40994179  0.97992770     1.04600
Cu176      Cu  0.93000636  0.41016185  0.08676092     1.04300
C177        C  0.80906088  0.42798722  0.03153978     0.94100
C178        C  0.04985517  0.39364736  0.03634761     0.93200
C179        C  0.91789312  0.29234909  0.02839322     0.85300
C180        C  0.93947437  0.52772107  0.03671357     0.91600
C181        C  0.42517918  0.89657765  0.85454662    -0.12500
C182        C  0.41619582  0.95132185  0.88838095     0.09600
C183        C  0.41108594  0.00609276  0.85780058    -0.12500
C184        C  0.41575970  0.00614027  0.79507819    -0.12500
C185        C  0.42529507  0.95140332  0.76130393     0.09600
C186        C  0.42943988  0.89660686  0.79179110    -0.12500
H187        H  0.42935584  0.85357312  0.87661439     0.13600
H188        H  0.40445006  0.04909525  0.88244001     0.13600
H189        H  0.41198007  0.04916537  0.77305776     0.13600
H190        H  0.43650901  0.85361780  0.76720971     0.13600
C191        C  0.43052103  0.00889750  0.29574061    -0.12500
C192        C  0.43263039  0.95424061  0.26134009     0.09600
C193        C  0.43677291  0.89927822  0.29153641    -0.12500
C194        C  0.43835302  0.89891122  0.35455946    -0.12500
C195        C  0.43624743  0.95349993  0.38905901     0.09600
C196        C  0.43255223  0.00852094  0.35886217    -0.12500
H197        H  0.42737301  0.05201645  0.27388609     0.13600
H198        H  0.43809415  0.85637889  0.26642418     0.13600
H199        H  0.44097922  0.85573779  0.37624399     0.13600
H200        H  0.43076702  0.05141705  0.38399365     0.13600
C201        C  0.14917166  0.40550276  0.09208057    -0.12500
C202        C  0.11730228  0.38978723  0.03862388     0.09600
C203        C  0.15045422  0.37403102  0.98679134    -0.12500
C204        C  0.21358131  0.37491393  0.98813756    -0.12500
C205        C  0.24519539  0.39274582  0.04102188     0.09600
C206        C  0.21215454  0.40750209  0.09311786    -0.12500
H207        H  0.12519473  0.41816144  0.13281520     0.13600
H208        H  0.12750244  0.36167481  0.94489109     0.13600
H209        H  0.23748224  0.36339585  0.94712410     0.13600
H210        H  0.23496217  0.42119507  0.13465857     0.13600
C211        C  0.64701887  0.44526905  0.08495651    -0.12500
C212        C  0.61352003  0.43385698  0.03142979     0.09600
C213        C  0.64458465  0.42524273  0.97729028    -0.12500
C214        C  0.70762290  0.42668941  0.97696475    -0.12500
C215        C  0.74153447  0.43442651  0.03093905     0.09600
C216        C  0.71021329  0.44484745  0.08483550    -0.12500
H217        H  0.62456867  0.45222366  0.12741106     0.13600
H218        H  0.62012330  0.41714093  0.93512314     0.13600
H219        H  0.73014642  0.42033829  0.93459984     0.13600
H220        H  0.73465105  0.45164095  0.12725229     0.13600
C221        C  0.85233116  0.15675233  0.61813561    -0.12500
C222        C  0.90252294  0.18727483  0.63841025     0.09600
C223        C  0.95335910  0.15310594  0.66260856    -0.12500
C224        C  0.95473839  0.08985996  0.66475909    -0.12500
C225        C  0.90491490  0.05922627  0.64369560     0.09600
C226        C  0.85335544  0.09353553  0.62117665    -0.12500
H227        H  0.81245189  0.18167901  0.59940091     0.13600
H228        H  0.99291642  0.17512140  0.67838751     0.13600
H229        H  0.99514216  0.06486427  0.68230599     0.13600
H230        H  0.81439326  0.07131811  0.60410927     0.13600
C231        C  0.97239789  0.58430771  0.62084692    -0.12500
C232        C  0.92089618  0.55610132  0.59991326     0.09600
C233        C  0.86979933  0.59277200  0.58032865    -0.12500
C234        C  0.86934252  0.65614238  0.58399959    -0.12500
C235        C  0.92031155  0.68441361  0.60642367     0.09600
C236        C  0.97229678  0.64765919  0.62356964    -0.12500
H237        H  0.01256078  0.55735301  0.63611554     0.13600
H238        H  0.82931103  0.57253117  0.56427038     0.13600
H239        H  0.82866908  0.68304931  0.57002568     0.13600
H240        H  0.01235980  0.66786434  0.64089005     0.13600
C241        C  0.19652766  0.93564905  0.10736009    -0.12500
C242        C  0.24662912  0.91869236  0.09158598    -0.14000
C243        C  0.43370658  0.22948124  0.17049374    -0.12500
C244        C  0.45345891  0.26771793  0.14168495    -0.14000
C245        C  0.05693355  0.28184745  0.45181496    -0.12500
C246        C  0.02572110  0.31256238  0.48627318    -0.14000
C247        C  0.21267887  0.95042029  0.61583454    -0.12500
C248        C  0.25391056  0.96247050  0.58620825    -0.14000
C249        C  0.92407480  0.86094639  0.86051071    -0.12500
C250        C  0.90179248  0.85914576  0.81027317    -0.14000
C251        C  0.34155875  0.59799245  0.91492724    -0.12500
C252        C  0.37336563  0.55718934  0.93656548    -0.14000
C253        C  0.94074532  0.90830650  0.39978816    -0.12500
C254        C  0.93256740  0.89586629  0.45095818    -0.14000
C255        C  0.64950448  0.99865459  0.06540423    -0.12500
C256        C  0.59655272  0.99157719  0.06738808    -0.14000
C257        C  0.95280916  0.64498852  0.04025619    -0.12500
C258        C  0.94667834  0.59143954  0.03830165    -0.14000
C259        C  0.87579478  0.18649209  0.01001590    -0.12500
C260        C  0.90240759  0.23058945  0.02356708    -0.14000
C261        C  0.61656641  0.94155400  0.59907141    -0.12500
C262        C  0.66342440  0.95741066  0.62043521    -0.14000
C263        C  0.74553607  0.38869659  0.77317302    -0.12500
C264        C  0.78921780  0.40293683  0.74843524    -0.14000
loop_ 
_geom_bond_atom_site_label_1 
_geom_bond_atom_site_label_2 
_geom_bond_distance 
_geom_bond_site_symmetry_2 
_ccdc_geom_bond_type 
N1            N2   1.322       .  A
N1            C5   1.337       .  A
N1           Cu9   2.052       .  S
N2            C3   1.350   1_545  A
N2           Cu8   2.093       .  S
C3            C4   1.388       .  A
C3            H6   1.082       .  S
C4            C5   1.375   1_565  A
C4          C262   1.433       .  S
C5            H7   1.083       .  S
Cu8          N11   2.093       .  S
Cu9          N19   2.049       .  S
Cu10         N12   2.055       .  S
Cu10         N18   2.063       .  S
N11          N12   1.322       .  A
N11          C15   1.350       .  A
N12          C13   1.340       .  A
C13          C14   1.377       .  A
C13          H16   1.083       .  S
C14          C15   1.388       .  A
C14         C259   1.440   1_556  S
C15          H17   1.082       .  S
N18          N19   1.318       .  A
N18          C22   1.345       .  A
N19          C20   1.339       .  A
C20          C21   1.380       .  A
C20          H23   1.083       .  S
C21          C22   1.383       .  A
C21         C263   1.434       .  S
C22          H24   1.078       .  S
N25          N26   1.323       .  A
N25          C29   1.344       .  A
N25         Cu33   2.063       .  S
N26          C27   1.344       .  A
N26         Cu32   2.066       .  S
C27          C28   1.378       .  A
C27          H30   1.082       .  S
C28          C29   1.378       .  A
C28         C253   1.432       .  S
C29          H31   1.082   1_655  S
Cu32         N35   2.066       .  S
Cu33         N43   2.063       .  S
Cu34         N36   2.067       .  S
Cu34         N42   2.068       .  S
N35          N36   1.322       .  A
N35          C39   1.345   1_565  A
N36          C37   1.343       .  A
C37          C38   1.379       .  A
C37          H40   1.082   1_554  S
C38          C39   1.380   1_565  A
C38         C255   1.434       .  S
C39          H41   1.082       .  S
N42          N43   1.322       .  A
N42          C46   1.345       .  A
N43          C44   1.344       .  A
C44          C45   1.378       .  A
C44          H47   1.082   1_655  S
C45          C46   1.379       .  A
C45         C257   1.435       .  S
C46          H48   1.082   1_554  S
N49          N50   1.321       .  A
N49          C53   1.345       .  A
N49         Cu57   2.057       .  S
N50          C51   1.344       .  A
N50         Cu56   2.074       .  S
C51          C52   1.381       .  A
C51          H54   1.082       .  S
C52          C53   1.378       .  A
C52         C251   1.434       .  S
C53          H55   1.082       .  S
Cu56         N59   2.075       .  S
Cu57         N67   2.058       .  S
Cu58         N60   2.068       .  S
Cu58         N66   2.075       .  S
N59          N60   1.321       .  A
N59          C63   1.345       .  A
N60          C61   1.341       .  A
C61          C62   1.382   1_455  A
C61          H64   1.083       .  S
C62          C63   1.385   1_655  A
C62         C249   1.437       .  S
C63          H65   1.082   1_455  S
N66          N67   1.321       .  A
N66          C70   1.348       .  A
N67          C68   1.339       .  A
C68          C69   1.378       .  A
C68          H71   1.082       .  S
C69          C70   1.384       .  A
C69         C247   1.431       .  S
C70          H72   1.082       .  S
N73          N74   1.325       .  A
N73          C77   1.347       .  A
N73         Cu81   2.088       .  S
N74          C75   1.343       .  A
N74         Cu80   2.061       .  S
C75          C76   1.375       .  A
C75          H78   1.082       .  S
C76          C77   1.382       .  A
C76         C245   1.435       .  S
C77          H79   1.082       .  S
Cu80         N83   2.059       .  S
Cu81         N91   2.084       .  S
Cu82         N84   2.065       .  S
Cu82         N90   2.052       .  S
N83          N84   1.319       .  A
N83          C87   1.346       .  A
N84          C85   1.340       .  A
C85          C86   1.379       .  A
C85          H88   1.082       .  S
C86          C87   1.384       .  A
C86         C243   1.430       .  S
C87          H89   1.082       .  S
N90          N91   1.318       .  A
N90          C94   1.337       .  A
N91          C92   1.349   1_545  A
C92          C93   1.391       .  A
C92          H95   1.082       .  S
C93          C94   1.379   1_565  A
C93         C241   1.436       .  S
C94          H96   1.083       .  S
O97        Cu105   1.999       .  S
O97         C107   1.274       .  A
O98        Cu105   1.987       .  S
O98         C108   1.274       .  A
O99        Cu105   2.031       .  S
O99         C109   1.281       .  A
O100       Cu105   2.034       .  S
O100        C110   1.282       .  A
O101       Cu106   2.012       .  S
O101        C110   1.278       .  A
O102       Cu106   2.013       .  S
O102        C109   1.278       .  A
O103       Cu106   2.023       .  S
O103        C108   1.278       .  A
O104       Cu106   2.011   1_455  S
O104        C107   1.277   1_455  A
Cu105      Cu106   2.374       .  S
C107        C246   1.432   1_655  S
C108        C264   1.431       .  S
C109        C232   1.488       .  S
C110        C222   1.489       .  S
O111       Cu119   2.013   1_554  S
O111        C121   1.277       .  A
O112       Cu119   2.006       .  S
O112        C122   1.276       .  A
O113       Cu119   2.029       .  S
O113        C123   1.280   1_556  A
O114       Cu119   2.028       .  S
O114        C124   1.280   1_556  A
O115       Cu120   2.037       .  S
O115        C124   1.282       .  A
O116       Cu120   2.033       .  S
O116        C123   1.281       .  A
O117       Cu120   1.997       .  S
O117        C122   1.275   1_554  A
O118       Cu120   1.990       .  S
O118        C121   1.273       .  A
Cu119      Cu120   2.374   1_556  S
C121        C244   1.427       .  S
C122        C252   1.430       .  S
C123        C212   1.493       .  S
C124        C205   1.495       .  S
O125       Cu133   2.016       .  S
O125        C135   1.278       .  A
O126       Cu133   2.021       .  S
O126        C136   1.276       .  A
O127       Cu133   2.016   1_556  S
O127        C137   1.279       .  A
O128       Cu133   2.013       .  S
O128        C138   1.279       .  A
O129       Cu134   2.021       .  S
O129        C138   1.280   1_545  A
O130       Cu134   2.019   1_556  S
O130        C137   1.280   1_545  A
O131       Cu134   1.997   1_565  S
O131        C136   1.276       .  A
O132       Cu134   1.997       .  S
O132        C135   1.274   1_545  A
Cu133      Cu134   2.375   1_565  S
C135        C256   1.432       .  S
C136        C242   1.435       .  S
C137        C182   1.487       .  S
C138        C192   1.486       .  S
O139       Cu147   1.989       .  S
O139        C149   1.273       .  A
O140       Cu147   1.984       .  S
O140        C150   1.274       .  A
O141       Cu147   2.028       .  S
O141        C151   1.281       .  A
O142       Cu147   2.027       .  S
O142        C152   1.281       .  A
O143       Cu148   2.014       .  S
O143        C152   1.278       .  A
O144       Cu148   2.018       .  S
O144        C151   1.279       .  A
O145       Cu148   2.032       .  S
O145        C150   1.278       .  A
O146       Cu148   2.017       .  S
O146        C149   1.278       .  A
Cu147      Cu148   2.374       .  S
C149        C254   1.430       .  S
C150        C250   1.434       .  S
C151        C235   1.490       .  S
C152        C225   1.488   1_565  S
O153       Cu161   2.009       .  S
O153        C163   1.275       .  A
O154       Cu161   1.998       .  S
O154        C164   1.276       .  A
O155       Cu161   2.018       .  S
O155        C165   1.280       .  A
O156       Cu161   2.020       .  S
O156        C166   1.280       .  A
O157       Cu162   2.017       .  S
O157        C166   1.279   1_545  A
O158       Cu162   2.016       .  S
O158        C165   1.279   1_545  A
O159       Cu162   2.002       .  S
O159        C164   1.274   1_545  A
O160       Cu162   2.002   1_565  S
O160        C163   1.277       .  A
Cu161      Cu162   2.375   1_565  S
C163        C261   1.432       .  S
C164        C248   1.427       .  S
C165        C195   1.487       .  S
C166        C185   1.487       .  S
O167       Cu175   2.039       .  S
O167        C177   1.282   1_556  A
O168       Cu175   2.035   1_455  S
O168        C178   1.282   1_556  A
O169       Cu175   1.999       .  S
O169        C179   1.275   1_556  A
O170       Cu175   2.001       .  S
O170        C180   1.274   1_556  A
O171       Cu176   2.014       .  S
O171        C180   1.277       .  A
O172       Cu176   2.027       .  S
O172        C179   1.278       .  A
O173       Cu176   2.024   1_455  S
O173        C178   1.280       .  A
O174       Cu176   2.025       .  S
O174        C177   1.280       .  A
Cu175      Cu176   2.372   1_556  S
C177        C215   1.496       .  S
C178        C202   1.495       .  S
C179        C260   1.438       .  S
C180        C258   1.433       .  S
C181        C182   1.407       .  A
C181        C186   1.401       .  A
C181        H187   1.083       .  S
C182        C183   1.407   1_565  A
C183        C184   1.401       .  A
C183        H188   1.083       .  S
C184        C185   1.407   1_545  A
C184        H189   1.083       .  S
C185        C186   1.406       .  A
C186        H190   1.083       .  S
C191        C192   1.406   1_545  A
C191        C196   1.402       .  A
C191        H197   1.083       .  S
C192        C193   1.406       .  A
C193        C194   1.399       .  A
C193        H198   1.083       .  S
C194        C195   1.406       .  A
C194        H199   1.083       .  S
C195        C196   1.408   1_565  A
C196        H200   1.083       .  S
C201        C202   1.409       .  A
C201        C206   1.405       .  A
C201        H207   1.083       .  S
C202        C203   1.407   1_554  A
C203        C204   1.405       .  A
C203        H208   1.083       .  S
C204        C205   1.409   1_556  A
C204        H209   1.083       .  S
C205        C206   1.407       .  A
C206        H210   1.083       .  S
C211        C212   1.407       .  A
C211        C216   1.405       .  A
C211        H217   1.083       .  S
C212        C213   1.407   1_554  A
C213        C214   1.406       .  A
C213        H218   1.083       .  S
C214        C215   1.406   1_556  A
C214        H219   1.081       .  S
C215        C216   1.409       .  A
C216        H220   1.083       .  S
C221        C222   1.406       .  A
C221        C226   1.403       .  A
C221        H227   1.083       .  S
C222        C223   1.408       .  A
C223        C224   1.401       .  A
C223        H228   1.083       .  S
C224        C225   1.405       .  A
C224        H229   1.083       .  S
C225        C226   1.408       .  A
C226        H230   1.083       .  S
C231        C232   1.407       .  A
C231        C236   1.402       .  A
C231        H237   1.083   1_655  S
C232        C233   1.406       .  A
C233        C234   1.402       .  A
C233        H238   1.083       .  S
C234        C235   1.408       .  A
C234        H239   1.083       .  S
C235        C236   1.406       .  A
C236        H240   1.083   1_655  S
C241        C242   1.206       .  T
C243        C244   1.201       .  T
C245        C246   1.205       .  T
C247        C248   1.201       .  T
C249        C250   1.205       .  T
C251        C252   1.203       .  T
C253        C254   1.203       .  T
C255        C256   1.204       .  T
C257        C258   1.205       .  T
C259        C260   1.208       .  T
C261        C262   1.204       .  T
C263        C264   1.204       .  T
