geometry optimzed in LAMMPS
_audit_creation_date              2020-12-01 
_audit_creation_method            'lammps2cif' 
_symmetry_space_group_name_H-M    'P1' 
_symmetry_Int_Tables_number       1 
_symmetry_cell_setting            triclinic 
loop_ 
_symmetry_equiv_pos_as_xyz 
  x,y,z 
_cell_length_a                    30.09228591 
_cell_length_b                    26.545191801077763 
_cell_length_c                    30.134276473166846 
_cell_angle_alpha                 90.00050656129461 
_cell_angle_beta                  90.08165464366435 
_cell_angle_gamma                 90.02511924307427 
loop_ 
_atom_site_label 
_atom_site_type_symbol 
_atom_site_fract_x 
_atom_site_fract_y 
_atom_site_fract_z 
_atom_site_charge 
N1          N  0.06538596  0.99927339  0.75012066     0.00500
C2          C  0.09241492  0.02614037  0.77700022     0.03100
C3          C  0.13640792  0.01634649  0.76732622    -0.19800
C4          C  0.13633358  0.98198653  0.73303137    -0.20000
C5          C  0.09229824  0.97232382  0.72328637     0.03000
H6          H  0.16533654  0.03236796  0.78340100     0.16800
H7          H  0.16519253  0.96588033  0.71700239     0.16900
N8          N  0.43172207  0.99948814  0.75006902     0.00500
C9          C  0.40475860  0.02644701  0.72321697     0.03100
C10         C  0.36074181  0.01679968  0.73293194    -0.19800
C11         C  0.36073300  0.98244036  0.76722673    -0.20000
C12         C  0.40474449  0.97263154  0.77693053     0.03000
H13         H  0.33185231  0.03291832  0.71688568     0.16800
H14         H  0.33183508  0.96643187  0.78328417     0.16900
O15         O  0.13728399  0.81330360  0.54511956    -0.70400
O16         O  0.17642812  0.72152118  0.45516513    -0.70400
O17         O  0.13729964  0.81338378  0.45522883    -0.70500
O18         O  0.17641152  0.72144136  0.54518011    -0.70500
O19         O  0.10932185  0.68540378  0.54498842    -0.70500
O20         O  0.07020903  0.77734794  0.45503546    -0.70500
O21         O  0.10933850  0.68548350  0.45509236    -0.70400
O22         O  0.07019329  0.77726788  0.54504925    -0.70500
Ni23       Ni  0.15925209  0.76874162  0.50017809     1.25400
Ni24       Ni  0.08736900  0.73004620  0.50003650     1.25400
C25         C  0.09749445  0.81022037  0.55983061     0.91800
C26         C  0.14912894  0.68856759  0.44038221     0.91700
C27         C  0.09751498  0.81032675  0.44038718     0.91700
C28         C  0.14910662  0.68846271  0.55983067     0.91900
N29         N  0.18172144  0.49925130  0.75003709     0.00500
C30         C  0.15469262  0.52611867  0.72317909     0.03100
C31         C  0.11069945  0.51632382  0.73288603    -0.19800
C32         C  0.11077383  0.48196419  0.76718071    -0.20000
C33         C  0.15480916  0.47230279  0.77689243     0.03000
H34         H  0.08177129  0.53234821  0.71683651     0.16800
H35         H  0.08191484  0.46586153  0.78323448     0.16900
N36         N  0.31538526  0.49951440  0.75003375     0.00500
C37         C  0.34235610  0.52649355  0.77688360     0.03100
C38         C  0.38637031  0.51688014  0.76716501    -0.19800
C39         C  0.38636967  0.48251993  0.73287016    -0.20000
C40         C  0.34235547  0.47267680  0.72317008     0.03000
H41         H  0.41526350  0.53301726  0.78321132     0.16800
H42         H  0.41526313  0.46652980  0.71681335     0.16900
O43         O  0.35947902  0.81359807  0.04494282    -0.70400
O44         O  0.32036745  0.72159300  0.95500749    -0.70400
O45         O  0.32034089  0.72170333  0.04502350    -0.70500
O46         O  0.35950437  0.81348762  0.95504921    -0.70500
O47         O  0.42659043  0.77750771  0.95513588    -0.70500
O48         O  0.38742660  0.68572231  0.04511079    -0.70500
O49         O  0.38745329  0.68561245  0.95521625    -0.70400
O50         O  0.42656476  0.77761768  0.04515169    -0.70500
Ni51       Ni  0.33752641  0.76892207  0.00000044     1.25400
Ni52       Ni  0.40940500  0.73028710  0.00015908     1.25400
C53         C  0.39926174  0.81057871  0.05979004     0.91800
C54         C  0.34767252  0.68863684  0.94036513     0.91700
C55         C  0.34763711  0.68878220  0.05982008     0.91700
C56         C  0.39929525  0.81043269  0.94034308     0.91900
N57         N  0.18173938  0.49954096  0.25012048     0.00500
C58         C  0.15481087  0.47253749  0.22324750     0.03100
C59         C  0.11078146  0.48211349  0.23292625    -0.19800
C60         C  0.11072798  0.51647361  0.26722082    -0.20000
C61         C  0.15472681  0.52635422  0.27696079     0.03000
H62         H  0.08191312  0.46594696  0.21685700     0.16800
H63         H  0.08180905  0.53243477  0.28325503     0.16900
N64         N  0.31540323  0.49993574  0.25027649     0.00500
C65         C  0.34233830  0.52691638  0.22346864     0.03500
C66         C  0.38636555  0.51730847  0.23325953    -0.19800
C67         C  0.38641061  0.48294880  0.26755434    -0.20000
C68         C  0.34240929  0.47310061  0.27718204     0.03000
H69         H  0.41523760  0.53343770  0.21725175     0.16800
H70         H  0.41532516  0.46695139  0.28364953     0.16900
O71         O  0.38762245  0.31349880  0.54511485    -0.70400
O72         O  0.42678700  0.22174892  0.45514141    -0.70400
O73         O  0.38765907  0.31361185  0.45522187    -0.70500
O74         O  0.42675145  0.22163587  0.54515592    -0.70500
O75         O  0.35966153  0.18559859  0.54493911    -0.70500
O76         O  0.32056882  0.27757565  0.45500427    -0.70500
O77         O  0.35969680  0.18571207  0.45504528    -0.70400
O78         O  0.32053232  0.27746220  0.54501864    -0.70500
Ni79       Ni  0.40960160  0.26895254  0.50016427     1.25400
Ni80       Ni  0.33771853  0.23025708  0.49999618     1.25400
C81         C  0.34782831  0.31041219  0.55981406     0.91800
C82         C  0.39948898  0.18880370  0.44034208     0.91700
C83         C  0.34787694  0.31056158  0.44037184     0.91700
C84         C  0.39944234  0.18865375  0.55979211     0.91900
O85         O  0.17692374  0.27739149  0.04517686    -0.70400
O86         O  0.13779280  0.18541727  0.95522320    -0.70400
O87         O  0.17693060  0.27731362  0.95516145    -0.70500
O88         O  0.13778708  0.18549523  0.04511999    -0.70500
O89         O  0.07070135  0.22147582  0.04505656    -0.70500
O90         O  0.10984399  0.31329258  0.95509970    -0.70500
O91         O  0.07070720  0.22139800  0.95503999    -0.70400
O92         O  0.10983701  0.31337017  0.04499120    -0.70500
Ni93       Ni  0.15975514  0.23007696  0.00017478     1.25400
Ni94       Ni  0.08787620  0.26871115  0.00004232     1.25400
C95         C  0.14962155  0.31034400  0.05983131     0.91800
C96         C  0.09800743  0.18844453  0.94038376     0.91700
C97         C  0.14963088  0.31024157  0.94038266     0.91700
C98         C  0.09800002  0.18854791  0.05983741     0.91900
N99         N  0.06540538  0.99958047  0.25016332     0.00500
C100        C  0.09242512  0.02641863  0.22332958     0.03100
C101        C  0.13642140  0.01658163  0.23308014    -0.19800
C102        C  0.13635866  0.98222201  0.26737458    -0.20000
C103        C  0.09232667  0.97260277  0.27704259     0.03000
H104        H  0.16534430  0.03256647  0.21704970     0.16800
H105        H  0.16522310  0.96607947  0.28344754     0.16900
N106        N  0.43174155  0.99990783  0.24994613     0.00500
C107        C  0.40480522  0.02688660  0.27673390     0.03100
C108        C  0.36077864  0.01727206  0.26691170    -0.19800
C109        C  0.36073520  0.98291181  0.23261705    -0.20000
C110        C  0.40473674  0.97306960  0.22302039     0.03000
H111        H  0.33190547  0.03340208  0.28289587     0.16800
H112        H  0.33182099  0.96691403  0.21649771     0.16900
C113        C  0.47850734  0.99979332  0.25005203    -0.09300
C114        C  0.01863957  0.99969294  0.25011415    -0.10800
C115        C  0.08419325  0.15448897  0.09412310    -0.14500
C116        C  0.07677452  0.12520183  0.12376826     0.09600
C117        C  0.07424515  0.09035755  0.15903751     0.11400
C118        C  0.07855837  0.06066775  0.18897657    -0.15300
C119        C  0.41329781  0.15477392  0.40604598    -0.14500
C120        C  0.42069146  0.12551316  0.37638019     0.09600
C121        C  0.42316024  0.09070641  0.34108009     0.11400
C122        C  0.41877496  0.06105946  0.31111501    -0.15300
C123        C  0.32852343  0.43878307  0.31144549    -0.14500
C124        C  0.32418693  0.40901378  0.34131075     0.09600
C125        C  0.32668764  0.37406674  0.37650814     0.11400
C126        C  0.33408617  0.34469774  0.40611077    -0.15300
C127        C  0.16341392  0.34445609  0.09411922    -0.14500
C128        C  0.17078065  0.37378244  0.12376734     0.09600
C129        C  0.17320971  0.40865434  0.15902800     0.11400
C130        C  0.16879504  0.43834107  0.18894164    -0.15300
C131        C  0.26863739  0.49980905  0.25019912    -0.09300
C132        C  0.22850517  0.49969125  0.25015689    -0.10800
C133        C  0.41305788  0.84471776  0.09405786    -0.14500
C134        C  0.42045903  0.87407997  0.12367122     0.09600
C135        C  0.42296080  0.90901195  0.15888263     0.11400
C136        C  0.41862405  0.93876677  0.18875622    -0.15300
C137        C  0.33383061  0.65474816  0.09412355    -0.14500
C138        C  0.32644042  0.62549427  0.12380044     0.09600
C139        C  0.32397702  0.59070369  0.15911436     0.11400
C140        C  0.32836633  0.56107284  0.18908724    -0.15300
C141        C  0.32842862  0.43839449  0.68885546    -0.14500
C142        C  0.32408212  0.40866516  0.65894757     0.09600
C143        C  0.32659193  0.37377697  0.62371151     0.11400
C144        C  0.33400891  0.34446757  0.59408791    -0.15300
C145        C  0.32842538  0.56068705  0.81121378    -0.14500
C146        C  0.32404878  0.59035957  0.84114421     0.09600
C147        C  0.32650887  0.62521014  0.87641951     0.11400
C148        C  0.33388682  0.65452352  0.90607507    -0.15300
C149        C  0.16342985  0.34429930  0.90609474    -0.14500
C150        C  0.17080128  0.37358806  0.87644007     0.09600
C151        C  0.17323208  0.40842833  0.84116224     0.11400
C152        C  0.16881215  0.43810177  0.81122672    -0.15300
C153        C  0.22848728  0.49932857  0.75004227    -0.09300
C154        C  0.26861948  0.49940575  0.75003952    -0.10800
C155        C  0.07833497  0.93837792  0.31133378    -0.14500
C156        C  0.07392127  0.90866764  0.34123258     0.09600
C157        C  0.07635500  0.87377437  0.37647452     0.11400
C158        C  0.08372460  0.84443828  0.40610864    -0.15300
C159        C  0.16854787  0.56039192  0.68886879    -0.14500
C160        C  0.17285441  0.59011889  0.65896629     0.09600
C161        C  0.17032170  0.62501641  0.62373272     0.11400
C162        C  0.16290471  0.65435050  0.59410762    -0.15300
C163        C  0.16860035  0.56063294  0.31129985    -0.14500
C164        C  0.17290909  0.59034730  0.34122481     0.09600
C165        C  0.17036890  0.62521359  0.37647576     0.11400
C166        C  0.16294132  0.65451026  0.40610668    -0.15300
C167        C  0.41869689  0.06066332  0.68889715    -0.14500
C168        C  0.42307197  0.09035469  0.65897788     0.09600
C169        C  0.42060649  0.12522183  0.62371762     0.11400
C170        C  0.41322551  0.15454210  0.59407388    -0.15300
C171        C  0.41310961  0.84449147  0.90606064    -0.14500
C172        C  0.42051755  0.87379432  0.87642502     0.09600
C173        C  0.42301591  0.90866499  0.84117404     0.11400
C174        C  0.41866450  0.93837388  0.81125531    -0.15300
C175        C  0.08369277  0.84427338  0.59411136    -0.14500
C176        C  0.07631707  0.87356770  0.62375573     0.09600
C177        C  0.07388011  0.90842200  0.65902132     0.11400
C178        C  0.07829607  0.93810933  0.68895070    -0.15300
C179        C  0.08420450  0.15432863  0.90610048    -0.14500
C180        C  0.07678578  0.12499999  0.87646551     0.09600
C181        C  0.07425286  0.09011547  0.84121947     0.11400
C182        C  0.07855962  0.06040121  0.81131003    -0.15300
C183        C  0.47848787  0.99940938  0.75007066    -0.09300
C184        C  0.01862010  0.99934380  0.75008589    -0.10800
N185        N  0.56538592  0.99927339  0.75012066     0.00500
C186        C  0.59241485  0.02614036  0.77700021     0.03100
C187        C  0.63640793  0.01634655  0.76732629    -0.19800
C188        C  0.63633359  0.98198647  0.73303130    -0.20000
C189        C  0.59229817  0.97232383  0.72328638     0.03000
H190        H  0.66533614  0.03236778  0.78340082     0.16800
H191        H  0.66519214  0.96588052  0.71700258     0.16900
N192        N  0.93172206  0.99948814  0.75006901     0.00500
C193        C  0.90475856  0.02644701  0.72321698     0.03100
C194        C  0.86074178  0.01679965  0.73293197    -0.19800
C195        C  0.86073301  0.98244034  0.76722675    -0.20000
C196        C  0.90474449  0.97263154  0.77693053     0.03000
H197        H  0.83185227  0.03291828  0.71688573     0.16800
H198        H  0.83183510  0.96643182  0.78328422     0.16900
O199        O  0.63728392  0.81330359  0.54511955    -0.70400
O200        O  0.67642802  0.72152117  0.45516511    -0.70400
O201        O  0.63729954  0.81338376  0.45522883    -0.70500
O202        O  0.67641146  0.72144136  0.54518009    -0.70500
O203        O  0.60932179  0.68540379  0.54498842    -0.70500
O204        O  0.57020893  0.77734793  0.45503547    -0.70500
O205        O  0.60933840  0.68548349  0.45509236    -0.70400
O206        O  0.57019322  0.77726788  0.54504927    -0.70500
Ni207      Ni  0.65925200  0.76874161  0.50017807     1.25400
Ni208      Ni  0.58736892  0.73004619  0.50003651     1.25400
C209        C  0.59749439  0.81022036  0.55983061     0.91800
C210        C  0.64912884  0.68856759  0.44038219     0.91700
C211        C  0.59751487  0.81032674  0.44038718     0.91700
C212        C  0.64910656  0.68846272  0.55983066     0.91900
N213        N  0.68172142  0.49925131  0.75003708     0.00500
C214        C  0.65469258  0.52611868  0.72317907     0.03100
C215        C  0.61069944  0.51632385  0.73288600    -0.19800
C216        C  0.61077371  0.48196417  0.76718073    -0.20000
C217        C  0.65480915  0.47230282  0.77689240     0.03000
H218        H  0.58177118  0.53234826  0.71683646     0.16800
H219        H  0.58191513  0.46586173  0.78323428     0.16900
N220        N  0.81538525  0.49951440  0.75003375     0.00500
C221        C  0.84235611  0.52649355  0.77688359     0.03100
C222        C  0.88637033  0.51688012  0.76716499    -0.19800
C223        C  0.88636964  0.48251992  0.73287015    -0.20000
C224        C  0.84235546  0.47267680  0.72317007     0.03000
H225        H  0.91526351  0.53301722  0.78321128     0.16800
H226        H  0.91526316  0.46652974  0.71681330     0.16900
O227        O  0.85947906  0.81359806  0.04494282    -0.70400
O228        O  0.82036739  0.72159302  0.95500754    -0.70400
O229        O  0.82034099  0.72170329  0.04502354    -0.70500
O230        O  0.85950431  0.81348762  0.95504922    -0.70500
O231        O  0.92659039  0.77750774  0.95513583    -0.70500
O232        O  0.88742672  0.68572232  0.04511077    -0.70500
O233        O  0.88745324  0.68561246  0.95521624    -0.70400
O234        O  0.92656481  0.77761769  0.04515165    -0.70500
Ni235      Ni  0.83752643  0.76892206  0.00000046     1.25400
Ni236      Ni  0.90940503  0.73028711  0.00015904     1.25400
C237        C  0.89926177  0.81057870  0.05979002     0.91800
C238        C  0.84767244  0.68863685  0.94036516     0.91700
C239        C  0.84763726  0.68878219  0.05982009     0.91700
C240        C  0.89929519  0.81043270  0.94034305     0.91900
N241        N  0.68173937  0.49954095  0.25012047     0.00500
C242        C  0.65481083  0.47253749  0.22324750     0.03100
C243        C  0.61078143  0.48211349  0.23292626    -0.19800
C244        C  0.61072793  0.51647368  0.26722090    -0.20000
C245        C  0.65472685  0.52635421  0.27696079     0.03000
H246        H  0.58191312  0.46594704  0.21685709     0.16800
H247        H  0.58180937  0.53243467  0.28325493     0.16900
N248        N  0.81540319  0.49993575  0.25027648     0.00500
C249        C  0.84233829  0.52691639  0.22346863     0.03500
C250        C  0.88636543  0.51730842  0.23325958    -0.19800
C251        C  0.88641056  0.48294881  0.26755433    -0.20000
C252        C  0.84240922  0.47310061  0.27718204     0.03000
H253        H  0.91523786  0.53343785  0.21725160     0.16800
H254        H  0.91532509  0.46695137  0.28364955     0.16900
O255        O  0.88762235  0.31349880  0.54511484    -0.70400
O256        O  0.92678694  0.22174892  0.45514143    -0.70400
O257        O  0.88765900  0.31361183  0.45522186    -0.70500
O258        O  0.92675137  0.22163587  0.54515593    -0.70500
O259        O  0.85966145  0.18559859  0.54493910    -0.70500
O260        O  0.82056874  0.27757565  0.45500427    -0.70500
O261        O  0.85969674  0.18571207  0.45504527    -0.70400
O262        O  0.82053222  0.27746219  0.54501863    -0.70500
Ni263      Ni  0.90960152  0.26895253  0.50016427     1.25400
Ni264      Ni  0.83771845  0.23025708  0.49999617     1.25400
C265        C  0.84782821  0.31041218  0.55981405     0.91800
C266        C  0.89948893  0.18880370  0.44034208     0.91700
C267        C  0.84787686  0.31056157  0.44037184     0.91700
C268        C  0.89944225  0.18865375  0.55979211     0.91900
O269        O  0.67692382  0.27739146  0.04517686    -0.70400
O270        O  0.63779282  0.18541729  0.95522319    -0.70400
O271        O  0.67693063  0.27731361  0.95516146    -0.70500
O272        O  0.63778710  0.18549521  0.04511997    -0.70500
O273        O  0.57070139  0.22147585  0.04505659    -0.70500
O274        O  0.60984402  0.31329257  0.95509970    -0.70500
O275        O  0.57070721  0.22139800  0.95504002    -0.70400
O276        O  0.60983711  0.31337017  0.04499118    -0.70500
Ni277      Ni  0.65975517  0.23007695  0.00017478     1.25400
Ni278      Ni  0.58787623  0.26871116  0.00004234     1.25400
C279        C  0.64962164  0.31034398  0.05983130     0.91800
C280        C  0.59800745  0.18844454  0.94038377     0.91700
C281        C  0.64963091  0.31024156  0.94038267     0.91700
C282        C  0.59800005  0.18854792  0.05983740     0.91900
N283        N  0.56540535  0.99958049  0.25016330     0.00500
C284        C  0.59242513  0.02641871  0.22332960     0.03100
C285        C  0.63642135  0.01658171  0.23308022    -0.19800
C286        C  0.63635868  0.98222208  0.26737460    -0.20000
C287        C  0.59232667  0.97260279  0.27704257     0.03000
H288        H  0.66534447  0.03256672  0.21704971     0.16800
H289        H  0.66522306  0.96607961  0.28344757     0.16900
N290        N  0.93174163  0.99990783  0.24994613     0.00500
C291        C  0.90480532  0.02688660  0.27673389     0.03100
C292        C  0.86077865  0.01727212  0.26691175    -0.19800
C293        C  0.86073523  0.98291174  0.23261697    -0.20000
C294        C  0.90473685  0.97306961  0.22302040     0.03000
H295        H  0.83190589  0.03340187  0.28289565     0.16800
H296        H  0.83182143  0.96691420  0.21649788     0.16900
C297        C  0.97850740  0.99979333  0.25005206    -0.09300
C298        C  0.51863953  0.99969294  0.25011411    -0.10800
C299        C  0.58419326  0.15448897  0.09412307    -0.14500
C300        C  0.57677452  0.12520184  0.12376823     0.09600
C301        C  0.57424515  0.09035757  0.15903748     0.11400
C302        C  0.57855839  0.06066780  0.18897656    -0.15300
C303        C  0.91329778  0.15477393  0.40604598    -0.14500
C304        C  0.92069146  0.12551317  0.37638019     0.09600
C305        C  0.92316025  0.09070641  0.34108010     0.11400
C306        C  0.91877502  0.06105947  0.31111502    -0.15300
C307        C  0.82852335  0.43878308  0.31144548    -0.14500
C308        C  0.82418683  0.40901378  0.34131075     0.09600
C309        C  0.82668755  0.37406674  0.37650814     0.11400
C310        C  0.83408608  0.34469774  0.40611077    -0.15300
C311        C  0.66341398  0.34445609  0.09411921    -0.14500
C312        C  0.67078066  0.37378245  0.12376733     0.09600
C313        C  0.67320966  0.40865434  0.15902800     0.11400
C314        C  0.66879497  0.43834106  0.18894163    -0.15300
C315        C  0.76863735  0.49980906  0.25019910    -0.09300
C316        C  0.72850514  0.49969123  0.25015686    -0.10800
C317        C  0.91305789  0.84471774  0.09405787    -0.14500
C318        C  0.92045898  0.87407996  0.12367122     0.09600
C319        C  0.92296080  0.90901195  0.15888263     0.11400
C320        C  0.91862411  0.93876677  0.18875623    -0.15300
C321        C  0.83383083  0.65474815  0.09412357    -0.14500
C322        C  0.82644064  0.62549426  0.12380046     0.09600
C323        C  0.82397711  0.59070369  0.15911435     0.11400
C324        C  0.82836633  0.56107284  0.18908724    -0.15300
C325        C  0.82842862  0.43839448  0.68885546    -0.14500
C326        C  0.82408213  0.40866515  0.65894756     0.09600
C327        C  0.82659192  0.37377697  0.62371151     0.11400
C328        C  0.83400882  0.34446756  0.59408790    -0.15300
C329        C  0.82842541  0.56068705  0.81121378    -0.14500
C330        C  0.82404883  0.59035957  0.84114421     0.09600
C331        C  0.82650888  0.62521015  0.87641952     0.11400
C332        C  0.83388673  0.65452354  0.90607510    -0.15300
C333        C  0.66342985  0.34429928  0.90609473    -0.14500
C334        C  0.67080119  0.37358806  0.87644006     0.09600
C335        C  0.67323198  0.40842835  0.84116223     0.11400
C336        C  0.66881208  0.43810178  0.81122670    -0.15300
C337        C  0.72848726  0.49932857  0.75004228    -0.09300
C338        C  0.76861947  0.49940576  0.75003954    -0.10800
C339        C  0.57833500  0.93837792  0.31133375    -0.14500
C340        C  0.57392128  0.90866765  0.34123256     0.09600
C341        C  0.57635499  0.87377438  0.37647450     0.11400
C342        C  0.58372452  0.84443827  0.40610864    -0.15300
C343        C  0.66854784  0.56039193  0.68886878    -0.14500
C344        C  0.67285434  0.59011890  0.65896628     0.09600
C345        C  0.67032163  0.62501641  0.62373271     0.11400
C346        C  0.66290465  0.65435051  0.59410761    -0.15300
C347        C  0.66860040  0.56063294  0.31129985    -0.14500
C348        C  0.67290915  0.59034730  0.34122481     0.09600
C349        C  0.67036891  0.62521359  0.37647576     0.11400
C350        C  0.66294123  0.65451025  0.40610667    -0.15300
C351        C  0.91869682  0.06066332  0.68889715    -0.14500
C352        C  0.92307187  0.09035470  0.65897788     0.09600
C353        C  0.92060639  0.12522183  0.62371762     0.11400
C354        C  0.91322541  0.15454210  0.59407389    -0.15300
C355        C  0.91310953  0.84449149  0.90606062    -0.14500
C356        C  0.92051749  0.87379433  0.87642501     0.09600
C357        C  0.92301590  0.90866499  0.84117404     0.11400
C358        C  0.91866450  0.93837388  0.81125531    -0.15300
C359        C  0.58369274  0.84427338  0.59411138    -0.14500
C360        C  0.57631706  0.87356770  0.62375574     0.09600
C361        C  0.57388012  0.90842200  0.65902132     0.11400
C362        C  0.57829605  0.93810934  0.68895071    -0.15300
C363        C  0.58420452  0.15432864  0.90610049    -0.14500
C364        C  0.57678578  0.12499999  0.87646551     0.09600
C365        C  0.57425287  0.09011547  0.84121947     0.11400
C366        C  0.57855960  0.06040121  0.81131004    -0.15300
C367        C  0.97848788  0.99940941  0.75007063    -0.09300
C368        C  0.51862008  0.99934379  0.75008590    -0.10800
loop_ 
_geom_bond_atom_site_label_1 
_geom_bond_atom_site_label_2 
_geom_bond_distance 
_geom_bond_site_symmetry_2 
_ccdc_geom_bond_type 
N1            C5   1.351       .  A
N1            C2   1.351   1_565  A
N1          C184   1.407       .  S
C2            C3   1.381       .  A
C2          C182   1.439       .  S
C3            C4   1.378   1_545  A
C3            H6   1.083       .  S
C4            C5   1.381       .  A
C4            H7   1.082       .  S
C5          C178   1.439       .  S
N8           C12   1.351       .  A
N8            C9   1.351   1_565  A
N8          C183   1.407       .  S
C9           C10   1.381       .  A
C9          C167   1.439       .  S
C10          C11   1.378   1_545  A
C10          H13   1.082       .  S
C11          C12   1.381       .  A
C11          H14   1.083       .  S
C12         C174   1.439       .  S
O15         Ni23   1.917       .  S
O15          C25   1.280       .  A
O16         Ni23   1.919       .  S
O16          C26   1.279       .  A
O17         Ni23   1.917       .  S
O17          C27   1.280       .  A
O18         Ni23   1.919       .  S
O18          C28   1.279       .  A
O19         Ni24   1.917       .  S
O19          C28   1.280       .  A
O20         Ni24   1.919       .  S
O20          C27   1.279       .  A
O21         Ni24   1.917       .  S
O21          C26   1.280       .  A
O22         Ni24   1.919       .  S
O22          C25   1.279       .  A
Ni23        Ni24   2.394       .  S
C25         C175   1.435       .  S
C26         C166   1.435       .  S
C27         C158   1.435       .  S
C28         C162   1.435       .  S
N29          C33   1.351       .  A
N29          C30   1.351       .  A
N29         C153   1.407       .  S
C30          C31   1.381       .  A
C30         C159   1.439       .  S
C31          C32   1.378       .  A
C31          H34   1.082       .  S
C32          C33   1.381       .  A
C32          H35   1.082       .  S
C33         C152   1.439       .  S
N36          C40   1.351       .  A
N36          C37   1.351       .  A
N36         C154   1.407       .  S
C37          C38   1.381       .  A
C37         C145   1.439       .  S
C38          C39   1.378       .  A
C38          H41   1.082       .  S
C39          C40   1.381       .  A
C39          H42   1.082       .  S
C40         C141   1.439       .  S
O43         Ni51   1.917       .  S
O43          C53   1.280       .  A
O44         Ni51   1.919   1_556  S
O44          C54   1.279       .  A
O45         Ni51   1.919       .  S
O45          C55   1.279       .  A
O46         Ni51   1.917   1_556  S
O46          C56   1.280       .  A
O47         Ni52   1.919   1_556  S
O47          C56   1.279       .  A
O48         Ni52   1.917       .  S
O48          C55   1.280       .  A
O49         Ni52   1.917   1_556  S
O49          C54   1.280       .  A
O50         Ni52   1.919       .  S
O50          C53   1.279       .  A
Ni51        Ni52   2.394       .  S
C53         C133   1.435       .  S
C54         C148   1.435       .  S
C55         C137   1.435       .  S
C56         C171   1.435       .  S
N57          C61   1.351       .  A
N57          C58   1.351       .  A
N57         C132   1.407       .  S
C58          C59   1.381       .  A
C58         C130   1.439       .  S
C59          C60   1.378       .  A
C59          H62   1.082       .  S
C60          C61   1.381       .  A
C60          H63   1.083       .  S
C61         C163   1.439       .  S
N64          C68   1.351       .  A
N64          C65   1.351       .  A
N64         C131   1.407       .  S
C65          C66   1.381       .  A
C65         C140   1.439       .  S
C66          C67   1.378       .  A
C66          H69   1.082       .  S
C67          C68   1.381       .  A
C67          H70   1.082       .  S
C68         C123   1.439       .  S
O71         Ni79   1.917       .  S
O71          C81   1.280       .  A
O72         Ni79   1.919       .  S
O72          C82   1.279       .  A
O73         Ni79   1.917       .  S
O73          C83   1.280       .  A
O74         Ni79   1.919       .  S
O74          C84   1.279       .  A
O75         Ni80   1.917       .  S
O75          C84   1.280       .  A
O76         Ni80   1.919       .  S
O76          C83   1.279       .  A
O77         Ni80   1.917       .  S
O77          C82   1.280       .  A
O78         Ni80   1.919       .  S
O78          C81   1.279       .  A
Ni79        Ni80   2.394       .  S
C81         C144   1.435       .  S
C82         C119   1.435       .  S
C83         C126   1.435       .  S
C84         C170   1.435       .  S
O85         Ni93   1.919       .  S
O85          C95   1.279       .  A
O86         Ni93   1.917   1_556  S
O86          C96   1.280       .  A
O87         Ni93   1.919   1_556  S
O87          C97   1.279       .  A
O88         Ni93   1.917       .  S
O88          C98   1.280       .  A
O89         Ni94   1.919       .  S
O89          C98   1.279       .  A
O90         Ni94   1.917   1_556  S
O90          C97   1.280       .  A
O91         Ni94   1.919   1_556  S
O91          C96   1.279       .  A
O92         Ni94   1.917       .  S
O92          C95   1.280       .  A
Ni93        Ni94   2.394       .  S
C95         C127   1.435       .  S
C96         C179   1.435       .  S
C97         C149   1.435       .  S
C98         C115   1.435       .  S
N99         C103   1.351       .  A
N99         C100   1.351   1_565  A
N99         C114   1.407       .  S
C100        C101   1.381       .  A
C100        C118   1.439       .  S
C101        C102   1.378   1_545  A
C101        H104   1.082       .  S
C102        C103   1.381       .  A
C102        H105   1.082       .  S
C103        C155   1.439       .  S
N106        C110   1.351       .  A
N106        C107   1.351   1_565  A
N106        C113   1.407       .  S
C107        C108   1.381       .  A
C107        C122   1.439       .  S
C108        C109   1.378   1_545  A
C108        H111   1.082       .  S
C109        C110   1.381       .  A
C109        H112   1.083       .  S
C110        C136   1.439       .  S
C113        C298   1.208       .  T
C114        C297   1.208   1_455  T
C115        C116   1.205       .  T
C116        C117   1.411       .  S
C117        C118   1.205       .  T
C119        C120   1.205       .  T
C120        C121   1.411       .  S
C121        C122   1.205       .  T
C123        C124   1.205       .  T
C124        C125   1.411       .  S
C125        C126   1.205       .  T
C127        C128   1.205       .  T
C128        C129   1.411       .  S
C129        C130   1.205       .  T
C131        C132   1.208       .  T
C133        C134   1.205       .  T
C134        C135   1.411       .  S
C135        C136   1.205       .  T
C137        C138   1.205       .  T
C138        C139   1.411       .  S
C139        C140   1.205       .  T
C141        C142   1.205       .  T
C142        C143   1.411       .  S
C143        C144   1.205       .  T
C145        C146   1.205       .  T
C146        C147   1.411       .  S
C147        C148   1.205       .  T
C149        C150   1.205       .  T
C150        C151   1.411       .  S
C151        C152   1.205       .  T
C153        C154   1.208       .  T
C155        C156   1.205       .  T
C156        C157   1.411       .  S
C157        C158   1.205       .  T
C159        C160   1.205       .  T
C160        C161   1.411       .  S
C161        C162   1.205       .  T
C163        C164   1.205       .  T
C164        C165   1.411       .  S
C165        C166   1.205       .  T
C167        C168   1.205       .  T
C168        C169   1.411       .  S
C169        C170   1.205       .  T
C171        C172   1.205       .  T
C172        C173   1.411       .  S
C173        C174   1.205       .  T
C175        C176   1.205       .  T
C176        C177   1.411       .  S
C177        C178   1.205       .  T
C179        C180   1.205       .  T
C180        C181   1.411       .  S
C181        C182   1.205       .  T
C183        C368   1.208       .  T
C184        C367   1.208   1_455  T
N185        C189   1.351       .  A
N185        C186   1.351   1_565  A
N185        C368   1.407       .  S
C186        C187   1.381       .  A
C186        C366   1.439       .  S
C187        C188   1.378   1_545  A
C187        H190   1.082       .  S
C188        C189   1.381       .  A
C188        H191   1.082       .  S
C189        C362   1.439       .  S
N192        C196   1.351       .  A
N192        C193   1.351   1_565  A
N192        C367   1.407       .  S
C193        C194   1.381       .  A
C193        C351   1.439       .  S
C194        C195   1.378   1_545  A
C194        H197   1.082       .  S
C195        C196   1.381       .  A
C195        H198   1.083       .  S
C196        C358   1.439       .  S
O199       Ni207   1.917       .  S
O199        C209   1.280       .  A
O200       Ni207   1.919       .  S
O200        C210   1.279       .  A
O201       Ni207   1.917       .  S
O201        C211   1.280       .  A
O202       Ni207   1.919       .  S
O202        C212   1.279       .  A
O203       Ni208   1.917       .  S
O203        C212   1.280       .  A
O204       Ni208   1.919       .  S
O204        C211   1.279       .  A
O205       Ni208   1.917       .  S
O205        C210   1.280       .  A
O206       Ni208   1.919       .  S
O206        C209   1.279       .  A
Ni207      Ni208   2.394       .  S
C209        C359   1.435       .  S
C210        C350   1.435       .  S
C211        C342   1.435       .  S
C212        C346   1.435       .  S
N213        C217   1.351       .  A
N213        C214   1.351       .  A
N213        C337   1.407       .  S
C214        C215   1.381       .  A
C214        C343   1.439       .  S
C215        C216   1.378       .  A
C215        H218   1.082       .  S
C216        C217   1.381       .  A
C216        H219   1.082       .  S
C217        C336   1.439       .  S
N220        C224   1.351       .  A
N220        C221   1.351       .  A
N220        C338   1.407       .  S
C221        C222   1.381       .  A
C221        C329   1.439       .  S
C222        C223   1.378       .  A
C222        H225   1.082       .  S
C223        C224   1.381       .  A
C223        H226   1.082       .  S
C224        C325   1.439       .  S
O227       Ni235   1.917       .  S
O227        C237   1.280       .  A
O228       Ni235   1.919   1_556  S
O228        C238   1.279       .  A
O229       Ni235   1.919       .  S
O229        C239   1.279       .  A
O230       Ni235   1.917   1_556  S
O230        C240   1.280       .  A
O231       Ni236   1.919   1_556  S
O231        C240   1.279       .  A
O232       Ni236   1.917       .  S
O232        C239   1.280       .  A
O233       Ni236   1.917   1_556  S
O233        C238   1.280       .  A
O234       Ni236   1.919       .  S
O234        C237   1.279       .  A
Ni235      Ni236   2.394       .  S
C237        C317   1.435       .  S
C238        C332   1.435       .  S
C239        C321   1.435       .  S
C240        C355   1.435       .  S
N241        C245   1.351       .  A
N241        C242   1.351       .  A
N241        C316   1.407       .  S
C242        C243   1.381       .  A
C242        C314   1.439       .  S
C243        C244   1.378       .  A
C243        H246   1.082       .  S
C244        C245   1.381       .  A
C244        H247   1.082       .  S
C245        C347   1.439       .  S
N248        C252   1.351       .  A
N248        C249   1.351       .  A
N248        C315   1.407       .  S
C249        C250   1.381       .  A
C249        C324   1.439       .  S
C250        C251   1.378       .  A
C250        H253   1.082       .  S
C251        C252   1.381       .  A
C251        H254   1.082       .  S
C252        C307   1.439       .  S
O255       Ni263   1.917       .  S
O255        C265   1.280       .  A
O256       Ni263   1.919       .  S
O256        C266   1.279       .  A
O257       Ni263   1.917       .  S
O257        C267   1.280       .  A
O258       Ni263   1.919       .  S
O258        C268   1.279       .  A
O259       Ni264   1.917       .  S
O259        C268   1.280       .  A
O260       Ni264   1.919       .  S
O260        C267   1.279       .  A
O261       Ni264   1.917       .  S
O261        C266   1.280       .  A
O262       Ni264   1.919       .  S
O262        C265   1.279       .  A
Ni263      Ni264   2.394       .  S
C265        C328   1.435       .  S
C266        C303   1.435       .  S
C267        C310   1.435       .  S
C268        C354   1.435       .  S
O269       Ni277   1.919       .  S
O269        C279   1.279       .  A
O270       Ni277   1.917   1_556  S
O270        C280   1.280       .  A
O271       Ni277   1.919   1_556  S
O271        C281   1.279       .  A
O272       Ni277   1.917       .  S
O272        C282   1.280       .  A
O273       Ni278   1.919       .  S
O273        C282   1.279       .  A
O274       Ni278   1.917   1_556  S
O274        C281   1.280       .  A
O275       Ni278   1.919   1_556  S
O275        C280   1.279       .  A
O276       Ni278   1.917       .  S
O276        C279   1.280       .  A
Ni277      Ni278   2.394       .  S
C279        C311   1.435       .  S
C280        C363   1.435       .  S
C281        C333   1.435       .  S
C282        C299   1.435       .  S
N283        C287   1.351       .  A
N283        C284   1.351   1_565  A
N283        C298   1.407       .  S
C284        C285   1.381       .  A
C284        C302   1.439       .  S
C285        C286   1.378   1_545  A
C285        H288   1.083       .  S
C286        C287   1.381       .  A
C286        H289   1.082       .  S
C287        C339   1.439       .  S
N290        C294   1.351       .  A
N290        C291   1.351   1_565  A
N290        C297   1.407       .  S
C291        C292   1.381       .  A
C291        C306   1.439       .  S
C292        C293   1.378   1_545  A
C292        H295   1.082       .  S
C293        C294   1.381       .  A
C293        H296   1.082       .  S
C294        C320   1.439       .  S
C299        C300   1.205       .  T
C300        C301   1.411       .  S
C301        C302   1.205       .  T
C303        C304   1.205       .  T
C304        C305   1.411       .  S
C305        C306   1.205       .  T
C307        C308   1.205       .  T
C308        C309   1.411       .  S
C309        C310   1.205       .  T
C311        C312   1.205       .  T
C312        C313   1.411       .  S
C313        C314   1.205       .  T
C315        C316   1.208       .  T
C317        C318   1.205       .  T
C318        C319   1.411       .  S
C319        C320   1.205       .  T
C321        C322   1.205       .  T
C322        C323   1.411       .  S
C323        C324   1.205       .  T
C325        C326   1.205       .  T
C326        C327   1.411       .  S
C327        C328   1.205       .  T
C329        C330   1.205       .  T
C330        C331   1.411       .  S
C331        C332   1.205       .  T
C333        C334   1.205       .  T
C334        C335   1.411       .  S
C335        C336   1.205       .  T
C337        C338   1.208       .  T
C339        C340   1.205       .  T
C340        C341   1.411       .  S
C341        C342   1.205       .  T
C343        C344   1.205       .  T
C344        C345   1.411       .  S
C345        C346   1.205       .  T
C347        C348   1.205       .  T
C348        C349   1.411       .  S
C349        C350   1.205       .  T
C351        C352   1.205       .  T
C352        C353   1.411       .  S
C353        C354   1.205       .  T
C355        C356   1.205       .  T
C356        C357   1.411       .  S
C357        C358   1.205       .  T
C359        C360   1.205       .  T
C360        C361   1.411       .  S
C361        C362   1.205       .  T
C363        C364   1.205       .  T
C364        C365   1.411       .  S
C365        C366   1.205       .  T
