geometry optimzed in LAMMPS
_audit_creation_date              2020-12-01 
_audit_creation_method            'lammps2cif' 
_symmetry_space_group_name_H-M    'P1' 
_symmetry_Int_Tables_number       1 
_symmetry_cell_setting            triclinic 
loop_ 
_symmetry_equiv_pos_as_xyz 
  x,y,z 
_cell_length_a                    55.37041496 
_cell_length_b                    29.5473563810747 
_cell_length_c                    39.82094254712242 
_cell_angle_alpha                 89.99953072326828 
_cell_angle_beta                  89.94271096274365 
_cell_angle_gamma                 90.00048867686195 
loop_ 
_atom_site_label 
_atom_site_type_symbol 
_atom_site_fract_x 
_atom_site_fract_y 
_atom_site_fract_z 
_atom_site_charge 
N1          N  0.16932548  0.95659745  0.70888137    -0.25600
N2          N  0.14863457  0.94359414  0.69537823    -0.33500
C3          C  0.15325665  0.91704070  0.66869095     0.02700
C4          C  0.17797663  0.91330244  0.66540155     0.08800
C5          C  0.18767759  0.93866720  0.69115116    -0.04300
H6          H  0.13962799  0.90158576  0.65296719     0.09400
H7          H  0.20661988  0.94368446  0.69668110     0.10600
Cu8        Cu  0.11509485  0.96230339  0.71391445     0.44200
Cu9        Cu  0.17168762  0.99791835  0.75083317     0.42000
Cu10       Cu  0.11519460  0.03567887  0.78680134     0.43900
N11         N  0.08398995  0.98573668  0.73710853    -0.33000
N12         N  0.08403652  0.01257138  0.76370814    -0.27200
C13         C  0.06109193  0.02143376  0.77267484    -0.03300
C14         C  0.04604732  0.99909330  0.75063996     0.08900
C15         C  0.06100862  0.97680189  0.72841987     0.02700
H16         H  0.05581670  0.04247413  0.79367976     0.10300
H17         H  0.05565049  0.95562655  0.70754503     0.09400
N18         N  0.14871994  0.05343742  0.80573039    -0.34400
N19         N  0.16939779  0.03958753  0.79260801    -0.26600
C20         C  0.18775940  0.05701386  0.81054387    -0.01800
C21         C  0.17807036  0.08292693  0.83602921     0.06800
C22         C  0.15335234  0.08003712  0.83237173     0.04900
H23         H  0.20669865  0.05129373  0.80532890     0.10000
H24         H  0.13973313  0.09608472  0.84781877     0.08800
N25         N  0.84895741  0.03929482  0.70991082    -0.25600
N26         N  0.86958450  0.05284141  0.69645573    -0.33500
C27         C  0.86483753  0.07915808  0.66969746     0.02700
C28         C  0.84010290  0.08217451  0.66630999     0.08800
C29         C  0.83052090  0.05663582  0.69207819    -0.04300
H30         H  0.87839179  0.09491627  0.65397767     0.09400
H31         H  0.81160334  0.05108027  0.69753888     0.10600
Cu32       Cu  0.90321277  0.03504888  0.71505756     0.44200
Cu33       Cu  0.84679167  0.99796558  0.75188351     0.42000
Cu34       Cu  0.90346302  0.96168197  0.78794679     0.43900
N35         N  0.93442617  0.01199574  0.73806961    -0.33000
N36         N  0.93451282  0.98516449  0.76467116    -0.27200
C37         C  0.95750359  0.97637461  0.77338575    -0.03300
C38         C  0.97243535  0.99875903  0.75118269     0.08900
C39         C  0.95736120  0.02100050  0.72912727     0.02700
H40         H  0.96288659  0.95527707  0.79429160     0.10300
H41         H  0.96261179  0.04211347  0.70814996     0.09400
N42         N  0.87002501  0.94301494  0.80681279    -0.34400
N43         N  0.84928099  0.95632184  0.79364079    -0.26600
C44         C  0.83100236  0.93832554  0.81147938    -0.01800
C45         C  0.84081130  0.91259852  0.83695172     0.06800
C46         C  0.86551725  0.91619561  0.83339018     0.04900
H47         H  0.81203672  0.94351538  0.80619601     0.10000
H48         H  0.87921213  0.90045723  0.84884584     0.08800
O49         O  0.29121449  0.73675175  0.53697795    -0.71200
O50         O  0.25671830  0.80691320  0.46515173    -0.72200
O51         O  0.25677725  0.80799627  0.53649407    -0.60800
O52         O  0.29115563  0.73567570  0.46567051    -0.69300
O53         O  0.26139199  0.68518702  0.46617923    -0.68800
O54         O  0.22701928  0.75749834  0.53699083    -0.60100
O55         O  0.22695962  0.75641865  0.46565939    -0.72600
O56         O  0.26144745  0.68627119  0.53747196    -0.71400
Cu57       Cu  0.27501569  0.77362314  0.50105531     1.04600
Cu58       Cu  0.24315429  0.71956775  0.50159360     1.04300
C59         C  0.28172069  0.70052944  0.54843367     0.94900
C60         C  0.23645570  0.79261821  0.45416956     0.94100
C61         C  0.23653330  0.79403048  0.54782531     0.86200
C62         C  0.28164643  0.69912062  0.45486929     0.92500
N63         N  0.34913777  0.45660109  0.79378328    -0.25600
N64         N  0.36982742  0.44360539  0.80729399    -0.33500
C65         C  0.36520234  0.41705650  0.83398353     0.02700
C66         C  0.34048176  0.41331326  0.83726582     0.08800
C67         C  0.33078385  0.43867035  0.81150990    -0.04300
H68         H  0.37882924  0.40160869  0.84971396     0.09400
H69         H  0.31184212  0.44368300  0.80597356     0.10600
Cu70       Cu  0.40336881  0.46232143  0.78876271     0.44200
Cu71       Cu  0.34677896  0.49791295  0.75182646     0.42000
Cu72       Cu  0.40327172  0.53567895  0.71586072     0.43900
N73         N  0.43447461  0.48576077  0.76557050    -0.33000
N74         N  0.43442886  0.51258920  0.73896693    -0.27200
C75         C  0.45737382  0.52145505  0.73000288    -0.03300
C76         C  0.47241799  0.49912334  0.75204338     0.08900
C77         C  0.45745585  0.47683363  0.77426405     0.02700
H78         H  0.46264960  0.54248963  0.70899478     0.10300
H79         H  0.46281348  0.45566265  0.79514182     0.09400
N80         N  0.36974654  0.55341549  0.69691902    -0.34400
N81         N  0.34906896  0.53956343  0.71004154    -0.26600
C82         C  0.33070704  0.55697922  0.69210113    -0.01800
C83         C  0.34039526  0.58288786  0.66661250     0.06800
C84         C  0.36511342  0.58000650  0.67027279     0.04900
H85         H  0.31176787  0.55125905  0.69731760     0.10000
H86         H  0.37873218  0.59605829  0.65482672     0.08800
N87         N  0.66951023  0.53930885  0.79278140    -0.25600
N88         N  0.64888285  0.55286133  0.80623178    -0.33500
C89         C  0.65362923  0.57918200  0.83298781     0.02700
C90         C  0.67836375  0.58219470  0.83637878     0.08800
C91         C  0.68794635  0.55664973  0.81061496    -0.04300
H92         H  0.64007461  0.59494435  0.84870429     0.09400
H93         H  0.70686402  0.55108906  0.80515828     0.10600
Cu94       Cu  0.61525482  0.53506884  0.78762846     0.44200
Cu95       Cu  0.67167647  0.49797141  0.75081424     0.42000
Cu96       Cu  0.61500340  0.46168978  0.71474965     0.43900
N97         N  0.58404041  0.51201528  0.76461881    -0.33000
N98         N  0.58395323  0.48517932  0.73802027    -0.27200
C99         C  0.56096221  0.47639149  0.72930522    -0.03300
C100        C  0.54603073  0.49878204  0.75150490     0.08900
C101        C  0.56110551  0.52102507  0.77355886     0.02700
H102        H  0.55557880  0.45529132  0.70840110     0.10300
H103        H  0.55585547  0.54214284  0.79453328     0.09400
N104        N  0.64844177  0.44301824  0.69588748    -0.34400
N105        N  0.66918588  0.45632479  0.70905976    -0.26600
C106        C  0.68746449  0.43832669  0.69122288    -0.01800
C107        C  0.67765558  0.41259868  0.66575144     0.06800
C108        C  0.65294961  0.41619699  0.66931160     0.04900
H109        H  0.70643015  0.44351630  0.69650672     0.10000
H110        H  0.63925478  0.40045857  0.65385576     0.08800
O111        O  0.76160047  0.80792887  0.03690464    -0.71200
O112        O  0.72743325  0.73644801  0.96553073    -0.72200
O113        O  0.72718733  0.73665397  0.03685428    -0.60800
O114        O  0.76184936  0.80771986  0.96558859    -0.69300
O115        O  0.79162198  0.75725041  0.96582373    -0.68800
O116        O  0.75696176  0.68619007  0.03709379    -0.60100
O117        O  0.75720572  0.68597754  0.96577014    -0.72600
O118        O  0.79137694  0.75746530  0.03714239    -0.71400
Cu119      Cu  0.74346743  0.77397003  0.00121071     1.04600
Cu120      Cu  0.77534204  0.71994001  0.00146559     1.04300
C121        C  0.78182412  0.79386655  0.04817781     0.94900
C122        C  0.73698117  0.70003994  0.95449822     0.94100
C123        C  0.73666007  0.70031453  0.04811128     0.86200
C124        C  0.78214976  0.79359089  0.95457083     0.92500
N125        N  0.34916246  0.45245580  0.21092138    -0.25600
N126        N  0.36986890  0.43981172  0.19722565    -0.33500
C127        C  0.36528571  0.41346337  0.17042563     0.02700
C128        C  0.34057148  0.40947563  0.16726503     0.08800
C129        C  0.33083537  0.43449166  0.19320735    -0.04300
H130        H  0.37893596  0.39839340  0.15449633     0.09400
H131        H  0.31188648  0.43933405  0.19883065     0.10600
Cu132      Cu  0.40336678  0.45893132  0.21558525     0.44200
Cu133      Cu  0.34679112  0.49360664  0.25297089     0.42000
Cu134      Cu  0.40329330  0.53236469  0.28843114     0.43900
N135        N  0.43447881  0.48272061  0.23847552    -0.33000
N136        N  0.43444739  0.50957418  0.26506470    -0.27200
C137        C  0.45739797  0.51866734  0.27381151    -0.03300
C138        C  0.47242959  0.49645681  0.25164396     0.08900
C139        C  0.45745438  0.47400496  0.22957331     0.02700
H140        H  0.46268739  0.53975952  0.29476673     0.10300
H141        H  0.46279881  0.45285114  0.20866516     0.09400
N142        N  0.36972883  0.54977748  0.30750326    -0.34400
N143        N  0.34907224  0.53555641  0.29458646    -0.26600
C144        C  0.33068599  0.55297459  0.31252584    -0.01800
C145        C  0.34033340  0.57926473  0.33779756     0.06800
C146        C  0.36505336  0.57661428  0.33401120     0.04900
H147        H  0.31175594  0.54705350  0.30742128     0.10000
H148        H  0.37864433  0.59304019  0.34924938     0.08800
N149        N  0.66942774  0.45671913  0.29382144    -0.25600
N150        N  0.64876616  0.44313061  0.30714792    -0.33500
C151        C  0.65344193  0.41631493  0.33365543     0.02700
C152        C  0.67816744  0.41301360  0.33701038     0.08800
C153        C  0.68781827  0.43890860  0.31148968    -0.04300
H154        H  0.63984606  0.40036344  0.34919761     0.09400
H155        H  0.70675061  0.44433222  0.30605434     0.10600
Cu156      Cu  0.61519397  0.46129232  0.28856339     0.44200
Cu157      Cu  0.67168357  0.49844446  0.25207561     0.42000
Cu158      Cu  0.61508489  0.53471937  0.21570047     0.43900
N159        N  0.58402567  0.48411355  0.26531406    -0.33000
N160        N  0.58399123  0.51096451  0.23872293    -0.27200
C161        C  0.56101884  0.51948962  0.22977765    -0.03300
C162        C  0.54604353  0.49691428  0.25181530     0.08900
C163        C  0.56107370  0.47483168  0.27401852     0.02700
H164        H  0.55567607  0.54053846  0.20882482     0.10300
H165        H  0.55578318  0.45363921  0.29493219     0.09400
N166        N  0.64858281  0.55304932  0.19683285    -0.34400
N167        N  0.66929120  0.53976017  0.21012475    -0.26600
C168        C  0.68761918  0.55729472  0.19212939    -0.01800
C169        C  0.67788302  0.58269714  0.16642330     0.06800
C170        C  0.65316629  0.57939400  0.17001820     0.04900
H171        H  0.70656989  0.55194440  0.19742754     0.10000
H172        H  0.63951487  0.59494934  0.15438745     0.08800
O173        O  0.72684066  0.25724401  0.53688668    -0.71200
O174        O  0.76149217  0.18618747  0.46560710    -0.72200
O175        O  0.76125546  0.18596951  0.53693116    -0.60800
O176        O  0.72707753  0.25746266  0.46556859    -0.69300
O177        O  0.75685463  0.30792592  0.46580149    -0.68800
O178        O  0.79102888  0.23643888  0.53716597    -0.60100
O179        O  0.79126699  0.23665154  0.46584256    -0.72600
O180        O  0.75661434  0.30771230  0.53711678    -0.71400
Cu181      Cu  0.74311597  0.21993504  0.50124050     1.04600
Cu182      Cu  0.77499136  0.27396432  0.50149036     1.04300
C183        C  0.73631472  0.29358381  0.54813799     0.94900
C184        C  0.78179295  0.20031301  0.45458627     0.94100
C185        C  0.78148140  0.20003035  0.54819947     0.86200
C186        C  0.73662952  0.29386468  0.45453240     0.92500
O187        O  0.22722823  0.23677378  0.96569397    -0.71200
O188        O  0.26172673  0.30694031  0.03751661    -0.72200
O189        O  0.26166308  0.30802516  0.96617374    -0.60800
O190        O  0.22729149  0.23569787  0.03700202    -0.69300
O191        O  0.25705671  0.18521341  0.03649012    -0.68800
O192        O  0.29142240  0.25753108  0.96567432    -0.60100
O193        O  0.29148682  0.25644970  0.03700527    -0.72600
O194        O  0.25699722  0.18629830  0.96519755    -0.71400
Cu195      Cu  0.24342788  0.27364798  0.00161505     1.04600
Cu196      Cu  0.27529100  0.21959721  0.00107351     1.04300
C197        C  0.23672327  0.20055378  0.95423689     0.94900
C198        C  0.28199067  0.29264805  0.04849596     0.94100
C199        C  0.28190700  0.29406240  0.95484073     0.86200
C200        C  0.23680259  0.19914418  0.04780239     0.92500
N201        N  0.16929778  0.95244212  0.29174051    -0.25600
N202        N  0.14859090  0.93980058  0.30543661    -0.33500
C203        C  0.15317289  0.91344429  0.33223292     0.02700
C204        C  0.17788688  0.90944849  0.33539066     0.08800
C205        C  0.18762408  0.93446816  0.30945056    -0.04300
H206        H  0.13952206  0.89837623  0.34816249     0.09400
H207        H  0.20657324  0.93930824  0.30382705     0.10600
Cu208      Cu  0.11509408  0.95893693  0.28708403     0.44200
Cu209      Cu  0.17166964  0.99360627  0.24969776     0.42000
Cu210      Cu  0.11516495  0.03238578  0.21424891     0.43900
N211        N  0.08398118  0.98273778  0.26420383    -0.33000
N212        N  0.08401127  0.00959674  0.23761742    -0.27200
C213        C  0.06106021  0.01869406  0.22887552    -0.03300
C214        C  0.04602978  0.99648052  0.25104365     0.08900
C215        C  0.06100618  0.97402275  0.27310935     0.02700
H216        H  0.05576967  0.03978986  0.20792265     0.10300
H217        H  0.05566295  0.95286386  0.29401553     0.09400
N218        N  0.14872976  0.04979658  0.19517697    -0.34400
N219        N  0.16938652  0.03556790  0.20808865    -0.26600
C220        C  0.18777239  0.05298651  0.19014831    -0.01800
C221        C  0.17812449  0.07928493  0.16488165     0.06800
C222        C  0.15340481  0.07663900  0.16867180     0.04900
H223        H  0.20670244  0.04705936  0.19524842     0.10000
H224        H  0.13981361  0.09307089  0.15343738     0.08800
N225        N  0.84903053  0.95673065  0.20888107    -0.25600
N226        N  0.86969114  0.94315073  0.19554744    -0.33500
C227        C  0.86501325  0.91633173  0.16904261     0.02700
C228        C  0.84028736  0.91301909  0.16569721     0.08800
C229        C  0.83063859  0.93891111  0.19122057    -0.04300
H230        H  0.87860787  0.90038529  0.15349598     0.09400
H231        H  0.81170669  0.94432697  0.19666277     0.10600
Cu232      Cu  0.90326463  0.96132380  0.21412300     0.44200
Cu233      Cu  0.84677769  0.99845633  0.25062630     0.42000
Cu234      Cu  0.90337578  0.03473637  0.28699666     0.43900
N235        N  0.93443329  0.98413681  0.23737723    -0.33000
N236        N  0.93446833  0.01098111  0.26397184    -0.27200
C237        C  0.95744091  0.01950142  0.27291906    -0.03300
C238        C  0.97241577  0.99693004  0.25087915     0.08900
C239        C  0.95738513  0.97485458  0.22867262     0.02700
H240        H  0.96278411  0.04054564  0.29387402     0.10300
H241        H  0.96267530  0.95366779  0.20775593     0.09400
N242        N  0.86987839  0.05306150  0.30586858    -0.34400
N243        N  0.84917006  0.03976986  0.29257769    -0.26600
C244        C  0.83084200  0.05730078  0.31057409    -0.01800
C245        C  0.84057778  0.08270352  0.33627998     0.06800
C246        C  0.86529466  0.07940437  0.33268389     0.04900
H247        H  0.81189124  0.05194851  0.30527631     0.10000
H248        H  0.87894592  0.09496193  0.34831379     0.08800
C249        C  0.02010318  0.99653006  0.25102765    -0.11600
C250        C  0.99834179  0.99664271  0.25096534    -0.13100
C251        C  0.22451365  0.17326300  0.07306996    -0.16800
C252        C  0.21412702  0.15153771  0.09424985     0.07300
C253        C  0.20181654  0.12618616  0.11896236     0.09100
C254        C  0.19111782  0.10467666  0.13996048    -0.17700
C255        C  0.79417426  0.17491319  0.42912042    -0.16800
C256        C  0.80462267  0.15361811  0.40774903     0.07300
C257        C  0.81697120  0.12877017  0.38277539     0.09100
C258        C  0.82765784  0.10767132  0.36152664    -0.17700
C259        C  0.69115599  0.38755403  0.36186386    -0.16800
C260        C  0.70183153  0.36609237  0.38288265     0.07300
C261        C  0.71409179  0.34091849  0.40770959     0.07100
C262        C  0.72441977  0.31942407  0.42904530    -0.17700
C263        C  0.32765911  0.38442824  0.14208759    -0.16800
C264        C  0.31699981  0.36338105  0.12081246     0.07300
C265        C  0.30470115  0.33873194  0.09571572     0.09100
C266        C  0.29430476  0.31769481  0.07418336    -0.17700
C267        C  0.52011755  0.49662458  0.25172733    -0.11600
C268        C  0.49835618  0.49650867  0.25166267    -0.13100
C269        C  0.79403149  0.81942423  0.07366828    -0.16800
C270        C  0.80435866  0.84091761  0.09500542     0.07300
C271        C  0.81661957  0.86609154  0.11983190     0.09100
C272        C  0.82729664  0.88755486  0.14084835    -0.17700
C273        C  0.72427718  0.67491288  0.07357523    -0.16800
C274        C  0.71383050  0.65361535  0.09494738     0.07300
C275        C  0.70148580  0.62876521  0.11992401     0.09100
C276        C  0.69080195  0.60766537  0.14117538    -0.17700
C277        C  0.72393056  0.31899875  0.57358450    -0.16800
C278        C  0.71348560  0.34040785  0.59489092     0.07300
C279        C  0.70115577  0.36554625  0.61971266     0.09100
C280        C  0.69050524  0.38703723  0.64077343    -0.17700
C281        C  0.69141764  0.60708239  0.86148977    -0.16800
C282        C  0.70213276  0.62817684  0.88267746     0.07300
C283        C  0.71442388  0.65308802  0.90762708     0.09100
C284        C  0.72476741  0.67448562  0.92900571    -0.17700
C285        C  0.32753177  0.38795189  0.86226139    -0.16800
C286        C  0.31685174  0.36655459  0.88334891     0.07300
C287        C  0.30455075  0.34140128  0.90819427     0.09100
C288        C  0.29417309  0.31984331  0.92948386    -0.17700
C289        C  0.52010475  0.49887725  0.75165672    -0.11600
C290        C  0.49834374  0.49898082  0.75182366    -0.13100
C291        C  0.19079784  0.88439729  0.36056742    -0.16800
C292        C  0.20145488  0.86334882  0.38184406     0.07300
C293        C  0.21375009  0.83869966  0.40694401     0.09100
C294        C  0.22414357  0.81766309  0.42847939    -0.17700
C295        C  0.29405550  0.67536843  0.57402789    -0.16800
C296        C  0.30445691  0.65412335  0.59543515     0.07300
C297        C  0.31676247  0.62921096  0.62036868     0.09100
C298        C  0.32744037  0.60800062  0.64152786    -0.17700
C299        C  0.29393792  0.67324083  0.42960356    -0.16800
C300        C  0.30432656  0.65151606  0.40842551     0.07300
C301        C  0.31663919  0.62616484  0.38371501     0.09100
C302        C  0.32733929  0.60465573  0.36271823    -0.17700
C303        C  0.82704841  0.10706303  0.64119989    -0.16800
C304        C  0.81633287  0.12815924  0.62001344     0.07300
C305        C  0.80404132  0.15307352  0.59506578     0.09100
C306        C  0.79369703  0.17447374  0.57368916    -0.17700
C307        C  0.82796187  0.88703842  0.86193161    -0.16800
C308        C  0.81731207  0.86554869  0.88299443     0.07300
C309        C  0.80498252  0.84041217  0.90781833     0.09100
C310        C  0.79453655  0.81900501  0.92912549    -0.17700
C311        C  0.19092278  0.88793536  0.64040639    -0.16800
C312        C  0.20159737  0.86653105  0.61931821     0.07300
C313        C  0.21389190  0.84137010  0.59447193     0.09100
C314        C  0.22426642  0.81980912  0.57318177    -0.17700
C315        C  0.22439060  0.17539409  0.92863993    -0.16800
C316        C  0.21399441  0.15415157  0.90722636     0.07300
C317        C  0.20169636  0.12924386  0.88228308     0.09100
C318        C  0.19102343  0.10803736  0.86111693    -0.17700
C319        C  0.02012188  0.99895083  0.75086086    -0.11600
C320        C  0.99836105  0.99884982  0.75102904    -0.13100
loop_ 
_geom_bond_atom_site_label_1 
_geom_bond_atom_site_label_2 
_geom_bond_distance 
_geom_bond_site_symmetry_2 
_ccdc_geom_bond_type 
N1            N2   1.323       .  A
N1            C5   1.345       .  A
N1           Cu9   2.073       .  S
N2            C3   1.345       .  A
N2           Cu8   2.073       .  S
C3            C4   1.379       .  A
C3            H6   1.082       .  S
C4            C5   1.379       .  A
C4          C311   1.437       .  S
C5            H7   1.082       .  S
Cu8          N11   2.073       .  S
Cu9          N19   2.073   1_565  S
Cu10         N12   2.072       .  S
Cu10         N18   2.072       .  S
N11          N12   1.323   1_565  A
N11          C15   1.345       .  A
N12          C13   1.345       .  A
C13          C14   1.379   1_545  A
C13          H16   1.082       .  S
C14          C15   1.379       .  A
C14         C319   1.436       .  S
C15          H17   1.082       .  S
N18          N19   1.323       .  A
N18          C22   1.345       .  A
N19          C20   1.345       .  A
C20          C21   1.379       .  A
C20          H23   1.082       .  S
C21          C22   1.379       .  A
C21         C318   1.437       .  S
C22          H24   1.082       .  S
N25          N26   1.323       .  A
N25          C29   1.345       .  A
N25         Cu33   2.073   1_545  S
N26          C27   1.345       .  A
N26         Cu32   2.072       .  S
C27          C28   1.379       .  A
C27          H30   1.082       .  S
C28          C29   1.379       .  A
C28         C303   1.437       .  S
C29          H31   1.082       .  S
Cu32         N35   2.072       .  S
Cu33         N43   2.073       .  S
Cu34         N36   2.072       .  S
Cu34         N42   2.072       .  S
N35          N36   1.323   1_545  A
N35          C39   1.345       .  A
N36          C37   1.345       .  A
C37          C38   1.379       .  A
C37          H40   1.082       .  S
C38          C39   1.379   1_565  A
C38         C320   1.436       .  S
C39          H41   1.082       .  S
N42          N43   1.323       .  A
N42          C46   1.345       .  A
N43          C44   1.345       .  A
C44          C45   1.379       .  A
C44          H47   1.082       .  S
C45          C46   1.379       .  A
C45         C307   1.437       .  S
C46          H48   1.082       .  S
O49         Cu57   2.010       .  S
O49          C59   1.276       .  A
O50         Cu57   2.010       .  S
O50          C60   1.276       .  A
O51         Cu57   2.010       .  S
O51          C61   1.276       .  A
O52         Cu57   2.010       .  S
O52          C62   1.276       .  A
O53         Cu58   2.009       .  S
O53          C62   1.276       .  A
O54         Cu58   2.010       .  S
O54          C61   1.276       .  A
O55         Cu58   2.010       .  S
O55          C60   1.276       .  A
O56         Cu58   2.009       .  S
O56          C59   1.276       .  A
Cu57        Cu58   2.380       .  S
C59         C295   1.435       .  S
C60         C294   1.435       .  S
C61         C314   1.435       .  S
C62         C299   1.435       .  S
N63          N64   1.323       .  A
N63          C67   1.345       .  A
N63         Cu71   2.073       .  S
N64          C65   1.345       .  A
N64         Cu70   2.073       .  S
C65          C66   1.379       .  A
C65          H68   1.082       .  S
C66          C67   1.379       .  A
C66         C285   1.437       .  S
C67          H69   1.082       .  S
Cu70         N73   2.073       .  S
Cu71         N81   2.073       .  S
Cu72         N74   2.072       .  S
Cu72         N80   2.072       .  S
N73          N74   1.323       .  A
N73          C77   1.345       .  A
N74          C75   1.345       .  A
C75          C76   1.379       .  A
C75          H78   1.082       .  S
C76          C77   1.379       .  A
C76         C290   1.436       .  S
C77          H79   1.082       .  S
N80          N81   1.323       .  A
N80          C84   1.345       .  A
N81          C82   1.345       .  A
C82          C83   1.379       .  A
C82          H85   1.082       .  S
C83          C84   1.379       .  A
C83         C298   1.437       .  S
C84          H86   1.082       .  S
N87          N88   1.323       .  A
N87          C91   1.345       .  A
N87         Cu95   2.073       .  S
N88          C89   1.345       .  A
N88         Cu94   2.072       .  S
C89          C90   1.379       .  A
C89          H92   1.082       .  S
C90          C91   1.379       .  A
C90         C281   1.437       .  S
C91          H93   1.082       .  S
Cu94         N97   2.072       .  S
Cu95        N105   2.073       .  S
Cu96         N98   2.072       .  S
Cu96        N104   2.072       .  S
N97          N98   1.323       .  A
N97         C101   1.345       .  A
N98          C99   1.345       .  A
C99         C100   1.379       .  A
C99         H102   1.082       .  S
C100        C101   1.379       .  A
C100        C289   1.436       .  S
C101        H103   1.082       .  S
N104        N105   1.323       .  A
N104        C108   1.345       .  A
N105        C106   1.345       .  A
C106        C107   1.379       .  A
C106        H109   1.082       .  S
C107        C108   1.379       .  A
C107        C280   1.437       .  S
C108        H110   1.082       .  S
O111       Cu119   2.009       .  S
O111        C121   1.276       .  A
O112       Cu119   2.010   1_556  S
O112        C122   1.276       .  A
O113       Cu119   2.010       .  S
O113        C123   1.276       .  A
O114       Cu119   2.010   1_556  S
O114        C124   1.276       .  A
O115       Cu120   2.010   1_556  S
O115        C124   1.276       .  A
O116       Cu120   2.010       .  S
O116        C123   1.276       .  A
O117       Cu120   2.010   1_556  S
O117        C122   1.276       .  A
O118       Cu120   2.010       .  S
O118        C121   1.276       .  A
Cu119      Cu120   2.380       .  S
C121        C269   1.435       .  S
C122        C284   1.435       .  S
C123        C273   1.435       .  S
C124        C310   1.435       .  S
N125        N126   1.323       .  A
N125        C129   1.346       .  A
N125       Cu133   2.073       .  S
N126        C127   1.345       .  A
N126       Cu132   2.073       .  S
C127        C128   1.379       .  A
C127        H130   1.082       .  S
C128        C129   1.380       .  A
C128        C263   1.437       .  S
C129        H131   1.082       .  S
Cu132       N135   2.073       .  S
Cu133       N143   2.073       .  S
Cu134       N136   2.072       .  S
Cu134       N142   2.072       .  S
N135        N136   1.323       .  A
N135        C139   1.345       .  A
N136        C137   1.345       .  A
C137        C138   1.379       .  A
C137        H140   1.082       .  S
C138        C139   1.379       .  A
C138        C268   1.436       .  S
C139        H141   1.082       .  S
N142        N143   1.323       .  A
N142        C146   1.345       .  A
N143        C144   1.345       .  A
C144        C145   1.379       .  A
C144        H147   1.082       .  S
C145        C146   1.379       .  A
C145        C302   1.437       .  S
C146        H148   1.082       .  S
N149        N150   1.323       .  A
N149        C153   1.345       .  A
N149       Cu157   2.073       .  S
N150        C151   1.345       .  A
N150       Cu156   2.072       .  S
C151        C152   1.379       .  A
C151        H154   1.082       .  S
C152        C153   1.379       .  A
C152        C259   1.437       .  S
C153        H155   1.082       .  S
Cu156       N159   2.072       .  S
Cu157       N167   2.073       .  S
Cu158       N160   2.072       .  S
Cu158       N166   2.073       .  S
N159        N160   1.323       .  A
N159        C163   1.345       .  A
N160        C161   1.345       .  A
C161        C162   1.379       .  A
C161        H164   1.082       .  S
C162        C163   1.379       .  A
C162        C267   1.436       .  S
C163        H165   1.082       .  S
N166        N167   1.323       .  A
N166        C170   1.345       .  A
N167        C168   1.345       .  A
C168        C169   1.379       .  A
C168        H171   1.082       .  S
C169        C170   1.379       .  A
C169        C276   1.437       .  S
C170        H172   1.082       .  S
O173       Cu181   2.010       .  S
O173        C183   1.276       .  A
O174       Cu181   2.010       .  S
O174        C184   1.276       .  A
O175       Cu181   2.010       .  S
O175        C185   1.276       .  A
O176       Cu181   2.010       .  S
O176        C186   1.276       .  A
O177       Cu182   2.009       .  S
O177        C186   1.276       .  A
O178       Cu182   2.010       .  S
O178        C185   1.276       .  A
O179       Cu182   2.010       .  S
O179        C184   1.276       .  A
O180       Cu182   2.010       .  S
O180        C183   1.276       .  A
Cu181      Cu182   2.380       .  S
C183        C277   1.435       .  S
C184        C255   1.435       .  S
C185        C306   1.435       .  S
C186        C262   1.435       .  S
O187       Cu195   2.010   1_556  S
O187        C197   1.276       .  A
O188       Cu195   2.010       .  S
O188        C198   1.276       .  A
O189       Cu195   2.010   1_556  S
O189        C199   1.276       .  A
O190       Cu195   2.010       .  S
O190        C200   1.276       .  A
O191       Cu196   2.009       .  S
O191        C200   1.276       .  A
O192       Cu196   2.010   1_556  S
O192        C199   1.276       .  A
O193       Cu196   2.010       .  S
O193        C198   1.276       .  A
O194       Cu196   2.009   1_556  S
O194        C197   1.276       .  A
Cu195      Cu196   2.380       .  S
C197        C315   1.435       .  S
C198        C266   1.435       .  S
C199        C288   1.435       .  S
C200        C251   1.435       .  S
N201        N202   1.323       .  A
N201        C205   1.346       .  A
N201       Cu209   2.073       .  S
N202        C203   1.345       .  A
N202       Cu208   2.073       .  S
C203        C204   1.379       .  A
C203        H206   1.082       .  S
C204        C205   1.380       .  A
C204        C291   1.437       .  S
C205        H207   1.082       .  S
Cu208       N211   2.073       .  S
Cu209       N219   2.073   1_565  S
Cu210       N212   2.072       .  S
Cu210       N218   2.072       .  S
N211        N212   1.323   1_565  A
N211        C215   1.345       .  A
N212        C213   1.345       .  A
C213        C214   1.379   1_545  A
C213        H216   1.082       .  S
C214        C215   1.379       .  A
C214        C249   1.436       .  S
C215        H217   1.082       .  S
N218        N219   1.323       .  A
N218        C222   1.345       .  A
N219        C220   1.345       .  A
C220        C221   1.379       .  A
C220        H223   1.082       .  S
C221        C222   1.379       .  A
C221        C254   1.437       .  S
C222        H224   1.082       .  S
N225        N226   1.323       .  A
N225        C229   1.345       .  A
N225       Cu233   2.073       .  S
N226        C227   1.345       .  A
N226       Cu232   2.072       .  S
C227        C228   1.379       .  A
C227        H230   1.082       .  S
C228        C229   1.379       .  A
C228        C272   1.437       .  S
C229        H231   1.082       .  S
Cu232       N235   2.072       .  S
Cu233       N243   2.073   1_565  S
Cu234       N236   2.072       .  S
Cu234       N242   2.073       .  S
N235        N236   1.323   1_565  A
N235        C239   1.345       .  A
N236        C237   1.345       .  A
C237        C238   1.379   1_545  A
C237        H240   1.082       .  S
C238        C239   1.379       .  A
C238        C250   1.436       .  S
C239        H241   1.082       .  S
N242        N243   1.323       .  A
N242        C246   1.345       .  A
N243        C244   1.345       .  A
C244        C245   1.379       .  A
C244        H247   1.082       .  S
C245        C246   1.379       .  A
C245        C258   1.437       .  S
C246        H248   1.082       .  S
C249        C250   1.205   1_455  T
C251        C252   1.205       .  T
C252        C253   1.412       .  S
C253        C254   1.205       .  T
C255        C256   1.206       .  T
C256        C257   1.412       .  S
C257        C258   1.206       .  T
C259        C260   1.205       .  T
C260        C261   1.412       .  S
C261        C262   1.205       .  T
C263        C264   1.206       .  T
C264        C265   1.412       .  S
C265        C266   1.206       .  T
C267        C268   1.205       .  T
C269        C270   1.205       .  T
C270        C271   1.412       .  S
C271        C272   1.205       .  T
C273        C274   1.206       .  T
C274        C275   1.412       .  S
C275        C276   1.206       .  T
C277        C278   1.206       .  T
C278        C279   1.412       .  S
C279        C280   1.206       .  T
C281        C282   1.206       .  T
C282        C283   1.412       .  S
C283        C284   1.206       .  T
C285        C286   1.206       .  T
C286        C287   1.412       .  S
C287        C288   1.206       .  T
C289        C290   1.205       .  T
C291        C292   1.206       .  T
C292        C293   1.412       .  S
C293        C294   1.206       .  T
C295        C296   1.206       .  T
C296        C297   1.412       .  S
C297        C298   1.206       .  T
C299        C300   1.205       .  T
C300        C301   1.412       .  S
C301        C302   1.205       .  T
C303        C304   1.206       .  T
C304        C305   1.412       .  S
C305        C306   1.206       .  T
C307        C308   1.206       .  T
C308        C309   1.412       .  S
C309        C310   1.206       .  T
C311        C312   1.206       .  T
C312        C313   1.412       .  S
C313        C314   1.206       .  T
C315        C316   1.206       .  T
C316        C317   1.412       .  S
C317        C318   1.206       .  T
C319        C320   1.205   1_455  T
