geometry optimzed in LAMMPS
_audit_creation_date              2020-11-30 
_audit_creation_method            'lammps2cif' 
_symmetry_space_group_name_H-M    'P1' 
_symmetry_Int_Tables_number       1 
_symmetry_cell_setting            triclinic 
loop_ 
_symmetry_equiv_pos_as_xyz 
  x,y,z 
_cell_length_a                    32.95088476690841 
_cell_length_b                    32.889678374197494 
_cell_length_c                    25.69149954848409 
_cell_angle_alpha                 90.18154347719803 
_cell_angle_beta                  88.96865465376828 
_cell_angle_gamma                 121.20049792118446 
loop_ 
_atom_site_label 
_atom_site_type_symbol 
_atom_site_fract_x 
_atom_site_fract_y 
_atom_site_fract_z 
_atom_site_charge 
C1          C  0.60725662  0.63412930  0.18210841     0.06490
C2          C  0.56977554  0.58840507  0.19563632    -0.09660
C3          C  0.53999845  0.55805793  0.15698002     0.03990
C4          C  0.54785823  0.57330493  0.10510172    -0.08180
C5          C  0.58498390  0.61889927  0.09149703     0.06490
C6          C  0.61490139  0.64942378  0.12996091    -0.07600
H7          H  0.56322442  0.57695771  0.23601893     0.12080
H8          H  0.52411828  0.55005852  0.07535430     0.09610
H9          H  0.64326637  0.68507686  0.11959353     0.09460
C10         C  0.34028886  0.36971826  0.19932143     0.06490
C11         C  0.38679164  0.40740263  0.20731614    -0.09660
C12         C  0.41496510  0.43444520  0.16483762     0.03990
C13         C  0.39674116  0.42366852  0.11463087    -0.08180
C14         C  0.35033715  0.38623455  0.10653333     0.06490
C15         C  0.32200293  0.35907260  0.14887476    -0.07600
H16         H  0.40059399  0.41615748  0.24635554     0.12080
H17         H  0.41835984  0.44526740  0.08186742     0.09610
H18         H  0.28578554  0.33042154  0.14276442     0.09460
C19         C  0.30894791  0.38101014  0.86495429     0.06490
C20         C  0.30112589  0.36581901  0.91714378    -0.09660
C21         C  0.33062819  0.39658718  0.95570320     0.03990
C22         C  0.36753166  0.44230247  0.94215209    -0.08180
C23         C  0.37556508  0.45745289  0.89024149     0.06490
C24         C  0.34620901  0.42686569  0.85147976    -0.07600
H25         H  0.27288979  0.33010176  0.92749359     0.12080
H26         H  0.39092989  0.46576109  0.97199485     0.09610
H27         H  0.35285976  0.43827416  0.81108497     0.09460
C28         C  0.57383890  0.64763739  0.84851191     0.06490
C29         C  0.59237436  0.65795417  0.89886063    -0.09660
C30         C  0.56445024  0.63012968  0.94108615     0.03990
C31         C  0.51820390  0.59238325  0.93296828    -0.08180
C32         C  0.49974856  0.58194209  0.88285236     0.06490
C33         C  0.52750403  0.60964427  0.84050309    -0.07600
H34         H  0.62849073  0.68682779  0.90495842     0.12080
H35         H  0.49691353  0.57027595  0.96561507     0.09610
H36         H  0.51354203  0.60112393  0.80151671     0.09460
C37         C  0.59901911  0.01726839  0.18226626     0.06490
C38         C  0.60755183  0.01395591  0.12905883    -0.09660
C39         C  0.57765145  0.01535909  0.09192439     0.03990
C40         C  0.53956847  0.02013719  0.10798645    -0.08180
C41         C  0.53087567  0.02330914  0.16084263     0.06490
C42         C  0.56061435  0.02192891  0.19813533    -0.07600
H43         H  0.63695293  0.00998757  0.11673538     0.12080
H44         H  0.51618981  0.02078836  0.07920173     0.09610
H45         H  0.55372805  0.02407463  0.23916484     0.09460
C46         C  0.33886947  0.02210985  0.20304438     0.06490
C47         C  0.38248898  0.02572025  0.21220026    -0.09660
C48         C  0.40985043  0.02502220  0.17028521     0.03990
C49         C  0.39371032  0.02087233  0.11946443    -0.08180
C50         C  0.35025208  0.01719445  0.11007539     0.06490
C51         C  0.32270911  0.01785710  0.15189201    -0.07600
H52         H  0.39476637  0.02852115  0.25164625     0.12080
H53         H  0.41482757  0.01993157  0.08708695     0.09610
H54         H  0.28882947  0.01465379  0.14477326     0.09460
C55         C  0.31384030  0.99747993  0.86561085     0.06490
C56         C  0.30564600  0.00141771  0.91876651    -0.09660
C57         C  0.33625461  0.00125456  0.95583268     0.03990
C58         C  0.37468366  0.99705633  0.93975574    -0.08180
C59         C  0.38303736  0.99327304  0.88694541     0.06490
C60         C  0.35259110  0.99340978  0.84972695    -0.07600
H61         H  0.27600464  0.00499209  0.93108821     0.12080
H62         H  0.39861127  0.99737729  0.96847660     0.09610
H63         H  0.35924322  0.99084655  0.80872447     0.09460
C64         C  0.57664455  0.99766348  0.84437051     0.06490
C65         C  0.53285431  0.99369078  0.83524005    -0.09660
C66         C  0.50514842  0.99365216  0.87721370     0.03990
C67         C  0.52113584  0.99747923  0.92805675    -0.08180
C68         C  0.56474869  0.00150162  0.93742733     0.06490
C69         C  0.59263755  0.00157295  0.89555750    -0.07600
H70         H  0.52064831  0.99105038  0.79578562     0.12080
H71         H  0.49972103  0.99779102  0.96048596     0.09610
H72         H  0.62659434  0.00495245  0.90267628     0.09460
O73         O  0.78051217  0.87627292  0.34625195    -0.54450
C74         C  0.83290173  0.78843276  0.36765480     0.78180
O75         O  0.70197433  0.75176748  0.45453226    -0.55610
C76         C  0.74361892  0.87727003  0.35832576     0.78150
C77         C  0.68900788  0.72641920  0.29473946     0.80540
Cd78       Cd  0.74765474  0.79237039  0.37260038     1.37470
O79         O  0.83256255  0.82470680  0.35195089    -0.54450
O80         O  0.72686733  0.76470398  0.28286108    -0.53260
C81         C  0.73321976  0.78343211  0.48342288     0.80500
O82         O  0.67757848  0.71852439  0.34251672    -0.55630
O83         O  0.79368341  0.75341303  0.38321230    -0.54080
O84         O  0.70784103  0.83855267  0.37378186    -0.54070
O85         O  0.76927264  0.81733429  0.46099474    -0.53240
O86         O  0.01882877  0.87389207  0.36369512    -0.54450
C87         C  0.87694613  0.78779627  0.37044361     0.78180
O88         O  0.96548744  0.71905590  0.35722368    -0.55610
C89         C  0.05561824  0.87628749  0.38126655     0.78150
C90         C  0.95537022  0.77898400  0.49858457     0.80540
Cd91       Cd  0.96420896  0.79009925  0.38719974     1.37460
O92         O  0.91673467  0.82382688  0.35818754    -0.54450
O93         O  0.95950527  0.81431070  0.47439233    -0.53260
C94         C  0.96838054  0.72937639  0.30934413     0.80500
O95         O  0.95537186  0.74674901  0.47132487    -0.55630
O96         O  0.87719617  0.75190412  0.38759009    -0.54080
O97         O  0.05088930  0.83825374  0.39923317    -0.54070
O98         O  0.96916736  0.76703252  0.29767017    -0.53240
O99         O  0.83047021  0.06474166  0.34490789    -0.54450
C100        C  0.74317405  0.92169266  0.35768071     0.78180
O101        O  0.70073814  0.00684152  0.45098557    -0.55610
C102        C  0.83292636  0.10214169  0.36174040     0.78150
C103        C  0.68447444  0.01231046  0.29195342     0.80540
Cd104      Cd  0.74586674  0.01060797  0.36918443     1.37470
O105        O  0.77949334  0.96092162  0.34449506    -0.54450
O106        O  0.72254714  0.01395568  0.27940959    -0.53260
C107        C  0.73178721  0.00797508  0.48036953     0.80500
O108        O  0.67426953  0.00958189  0.33998280    -0.55630
O109        O  0.70721915  0.92304788  0.37306938    -0.54080
O110        O  0.79476773  0.09789761  0.37919681    -0.54070
O111        O  0.76735801  0.01003151  0.45831704    -0.53240
O112        O  0.01940311  0.20092894  0.35864356    -0.54450
C113        C  0.87828019  0.14757245  0.36386790     0.78180
O114        O  0.96567455  0.27202241  0.46375481    -0.55610
C115        C  0.05732950  0.23621118  0.37509471     0.78150
C116        C  0.97672128  0.30075475  0.30279276     0.80540
Cd117      Cd  0.96868538  0.23355454  0.37994754     1.37470
O118        O  0.91691766  0.15115248  0.34940134    -0.54450
O119        O  0.97753352  0.26394500  0.29065390    -0.53260
C120        C  0.96273049  0.23868887  0.49142260     0.80500
O121        O  0.97216828  0.30703656  0.35065285    -0.55630
O122        O  0.88099362  0.18444997  0.38280228    -0.54080
O123        O  0.05502778  0.27142873  0.39094715    -0.54070
O124        O  0.96262049  0.20503011  0.46757713    -0.53240
O125        O  0.10253617  0.19872538  0.36584413    -0.54450
C126        C  0.18823596  0.14486953  0.38734930     0.78180
O127        O  0.25814344  0.30130669  0.36620380    -0.55610
C128        C  0.10113881  0.23522766  0.37843701     0.78150
C129        C  0.18448245  0.23405838  0.50695957     0.80540
Cd130      Cd  0.18383098  0.22933524  0.39560807     1.37470
O131        O  0.15269010  0.14610077  0.37160989    -0.54450
O132        O  0.15182184  0.20070573  0.48133176    -0.53260
C133        C  0.25144595  0.29058767  0.31845074     0.80500
O134        O  0.21873343  0.26738122  0.48113706    -0.55630
O135        O  0.22251558  0.18312010  0.40472388    -0.54080
O136        O  0.13866536  0.26993713  0.39646768    -0.54070
O137        O  0.21397053  0.25246531  0.30677673    -0.53240
O138        O  0.10437874  0.95990034  0.36818769    -0.54450
C139        C  0.18875113  0.10069297  0.38783542     0.78180
O140        O  0.22030443  0.01158489  0.48463401    -0.55610
C141        C  0.10081254  0.92160770  0.38337605     0.78150
C142        C  0.25249621  0.01762660  0.32135199     0.80540
Cd143      Cd  0.18555998  0.01235348  0.39833146     1.37460
O144        O  0.15375480  0.06203060  0.37230621    -0.54450
O145        O  0.21502373  0.01663143  0.30933483    -0.53260
C146        C  0.18597558  0.00967458  0.51010924     0.80500
O147        O  0.25974362  0.01610016  0.36936263    -0.55630
O148        O  0.22335053  0.09902016  0.40585935    -0.54080
O149        O  0.13736107  0.92473331  0.40277325    -0.54070
O150        O  0.15368370  0.00925679  0.48403241    -0.53240
O151        O  0.81070894  0.81809490  0.68094173    -0.54450
C152        C  0.72556454  0.87270379  0.65994515     0.78180
O153        O  0.69489634  0.74935858  0.56608693    -0.55610
C154        C  0.81167632  0.78130300  0.66861351     0.78150
C155        C  0.66192117  0.72713291  0.72907562     0.80540
Cd156      Cd  0.72941000  0.78789723  0.65158425     1.37470
O157        O  0.76095441  0.87117940  0.67566067    -0.54450
O158        O  0.70004849  0.76464917  0.74060631    -0.53260
C159        C  0.72937028  0.78246251  0.54028161     0.80500
O160        O  0.65447382  0.71680241  0.68128776    -0.55630
O161        O  0.69120158  0.83461408  0.64237658    -0.54080
O162        O  0.77388303  0.74661476  0.65102806    -0.54070
O163        O  0.76177918  0.81606700  0.56589478    -0.53240
O164        O  0.89340452  0.81512000  0.68802000    -0.54450
C165        C  0.03422054  0.86742842  0.68308880     0.78180
O166        O  0.93833664  0.70760935  0.69629152    -0.55610
C167        C  0.85529979  0.77995861  0.67176175     0.78150
C168        C  0.95096499  0.77723181  0.55551271     0.80540
Cd169      Cd  0.94360342  0.78188664  0.66688066     1.37470
O170        O  0.99568637  0.86422793  0.69726314    -0.54450
O171        O  0.95071888  0.81074972  0.57926127    -0.53260
C172        C  0.93529737  0.71477481  0.74423519     0.80500
O173        O  0.94744425  0.74365678  0.58321825    -0.55630
O174        O  0.03127032  0.83035455  0.66443076    -0.54080
O175        O  0.85726194  0.74454187  0.65594393    -0.54070
O176        O  0.93599972  0.75236884  0.75635089    -0.53240
O177        O  0.76053458  0.95557105  0.67521762    -0.54450
C178        C  0.81467691  0.09615727  0.66396768     0.78180
O179        O  0.69403584  0.00527182  0.56281306    -0.55610
C180        C  0.72534977  0.91704552  0.65968886     0.78150
C181        C  0.66288374  0.00170178  0.72609935     0.80540
Cd182      Cd  0.72935231  0.00577440  0.64917604     1.37460
O183        O  0.81065544  0.05772434  0.67939492    -0.54450
O184        O  0.69943590  0.00090148  0.73811269    -0.53260
C185        C  0.72834608  0.00713053  0.53735010     0.80500
O186        O  0.65631089  0.00441164  0.67812297    -0.55630
O187        O  0.77836830  0.09335683  0.64430760    -0.54080
O188        O  0.69085268  0.91901289  0.64185207    -0.54070
O189        O  0.76103718  0.00839155  0.56346023    -0.53240
O190        O  0.89673971  0.14330180  0.68362081    -0.54450
C191        C  0.03883571  0.22861649  0.67678813     0.78180
O192        O  0.95932026  0.26959168  0.57568134    -0.55610
C193        C  0.86009627  0.14125909  0.66609924     0.78150
C194        C  0.94878896  0.28856002  0.73741896     0.80540
Cd195      Cd  0.95187655  0.22698181  0.65990884     1.37470
O196        O  0.99892960  0.19280230  0.68914440    -0.54450
O197        O  0.94614466  0.25002289  0.74924064    -0.53260
C198        C  0.95936921  0.23738824  0.54841672     0.80500
O199        O  0.95298441  0.29932385  0.68956287    -0.55630
O200        O  0.03884913  0.26455239  0.65932748    -0.54080
O201        O  0.86515552  0.17944883  0.64819109    -0.54070
O202        O  0.95619579  0.20251377  0.57266452    -0.53240
O203        O  0.08275999  0.19124898  0.69548291    -0.54450
C204        C  0.17080683  0.13772306  0.68891358     0.78180
O205        O  0.21254730  0.26418269  0.59269453    -0.55610
C206        C  0.08271334  0.22768390  0.67979335     0.78150
C207        C  0.22695022  0.28871680  0.75243594     0.80540
Cd208      Cd  0.16756362  0.22307726  0.67474010     1.37470
O209        O  0.13420835  0.13915052  0.70129455    -0.54450
O210        O  0.18836582  0.25118485  0.76434330    -0.53260
C211        C  0.18118745  0.23257632  0.56385466     0.80500
O212        O  0.23874099  0.29599835  0.70471216    -0.55630
O213        O  0.20665478  0.17619681  0.67304361    -0.54080
O214        O  0.12207721  0.26260294  0.66441663    -0.54070
O215        O  0.14552835  0.19829258  0.58636788    -0.53240
O216        O  0.13429445  0.05402848  0.70292001    -0.54450
C217        C  0.07974857  0.91265531  0.68525494     0.78180
O218        O  0.21289841  0.00853529  0.59645247    -0.55610
C219        C  0.17082316  0.09308561  0.68969176     0.78150
C220        C  0.22798340  0.00132993  0.75567905     0.80540
Cd221      Cd  0.16724664  0.00380771  0.67817559     1.37470
O222        O  0.08248944  0.95018857  0.70206500    -0.54450
O223        O  0.19073174  0.00136426  0.76809628    -0.53260
C224        C  0.18204992  0.00781410  0.56706532     0.80500
O225        O  0.23762867  0.00264496  0.70763473    -0.55630
O226        O  0.11779476  0.91658659  0.66788382    -0.54080
O227        O  0.20660147  0.09137341  0.67438047    -0.54070
O228        O  0.14623804  0.00526865  0.58908696    -0.53240
C229        C  0.94370684  0.37087972  0.85333812     0.06490
C230        C  0.93473404  0.40726817  0.84240012    -0.09660
C231        C  0.93393530  0.43550343  0.88280475     0.03990
C232        C  0.94193174  0.42728113  0.93389811    -0.08180
C233        C  0.95102968  0.39117784  0.94503280     0.06490
C234        C  0.95187979  0.36279986  0.90473975    -0.07600
H235        H  0.92899613  0.41390850  0.80269867     0.12080
H236        H  0.94186104  0.44962355  0.96504693     0.09610
H237        H  0.95928504  0.33501643  0.91318767     0.09460
C238        C  0.92971705  0.62593927  0.85829034     0.06490
C239        C  0.92493752  0.58209327  0.84576963    -0.09660
C240        C  0.92678173  0.55377802  0.88511726     0.03990
C241        C  0.93316053  0.56914904  0.93673031    -0.08180
C242        C  0.93811861  0.61285492  0.94943928     0.06490
C243        C  0.93632038  0.64136303  0.91021951    -0.07600
H244        H  0.92070846  0.57054092  0.80563092     0.12080
H245        H  0.93531739  0.54744625  0.96702695     0.09610
H246        H  0.94078994  0.67555985  0.91985872     0.09460
C247        C  0.98408830  0.39057054  0.18880307     0.06490
C248        C  0.97809115  0.37543926  0.13678060    -0.09660
C249        C  0.97758189  0.40453804  0.09739259     0.03990
C250        C  0.98320455  0.44853522  0.11002333    -0.08180
C251        C  0.98898031  0.46362860  0.16171782     0.06490
C252        C  0.98953444  0.43471973  0.20124373    -0.07600
H253        H  0.97312882  0.34103578  0.12717760     0.12080
H254        H  0.98202247  0.47069445  0.07957917     0.09610
H255        H  0.99331847  0.44607663  0.24143051     0.09460
C256        C  0.97421090  0.64777024  0.19305416     0.06490
C257        C  0.96581511  0.65573560  0.14169843    -0.09270
C258        C  0.96628439  0.62712937  0.10143660     0.03990
C259        C  0.97525710  0.59093464  0.11255684    -0.08180
C260        C  0.98345430  0.58281720  0.16361102     0.06490
C261        C  0.98304222  0.61128483  0.20397310    -0.07600
H262        H  0.95842919  0.68353839  0.13328281     0.12080
H263        H  0.97496901  0.56837586  0.08145288     0.09610
H264        H  0.98885768  0.60467654  0.24365562     0.09460
C265        C  0.99126432  0.50760110  0.17315483    -0.09910
C266        C  0.98959926  0.54334904  0.17364713    -0.11470
C267        C  0.94725759  0.62812950  0.00276734    -0.09910
C268        C  0.95587542  0.63249193  0.04857507    -0.11470
C269        C  0.96095279  0.38553128  0.99800089    -0.09910
C270        C  0.96904703  0.38959140  0.04393116    -0.11470
C271        C  0.92734690  0.47470064  0.87284806    -0.09910
C272        C  0.92515763  0.51015361  0.87351213    -0.11470
C273        C  0.94704036  0.31852971  0.77696427    -0.09910
C274        C  0.94544346  0.34250225  0.81160232    -0.11470
C275        C  0.92998637  0.65600267  0.81751081    -0.09910
C276        C  0.93171886  0.68206784  0.78349595    -0.11470
C277        C  0.98046619  0.33364231  0.26364725    -0.09910
C278        C  0.98275021  0.36001598  0.22967497    -0.11470
C279        C  0.97251464  0.67613165  0.23483480    -0.09910
C280        C  0.97068125  0.69986163  0.26960478    -0.11470
C281        C  0.60551119  0.99854551  0.80113409    -0.09910
C282        C  0.63065623  0.99978912  0.76571214    -0.11470
C283        C  0.28314484  0.99857148  0.82716941    -0.09910
C284        C  0.25795549  0.99980668  0.79451624    -0.11470
C285        C  0.46079506  0.99117359  0.86939771    -0.09910
C286        C  0.42416725  0.99102657  0.87224502    -0.11470
C287        C  0.28495781  0.02012437  0.28170521    -0.09910
C288        C  0.31014944  0.02152050  0.24626298    -0.11470
C289        C  0.33035917  0.00670699  0.01059509    -0.09910
C290        C  0.33468208  0.01160561  0.05710523    -0.11470
C291        C  0.65430827  0.01372178  0.25328114    -0.09910
C292        C  0.62922687  0.01528945  0.22072032    -0.11470
C293        C  0.58394845  0.01066217  0.03707364    -0.09910
C294        C  0.57999397  0.00644686  0.99047616    -0.11470
C295        C  0.49014890  0.02629913  0.17546264    -0.09910
C296        C  0.45387235  0.02683349  0.17818889    -0.11470
C297        C  0.60306764  0.67477955  0.80479041    -0.09910
C298        C  0.62884129  0.69781197  0.76902850    -0.11470
C299        C  0.27995834  0.34891190  0.82496631    -0.09910
C300        C  0.25596797  0.32164542  0.79156220    -0.11470
C301        C  0.41633460  0.50322012  0.87766470    -0.09910
C302        C  0.45355404  0.54052863  0.87561285    -0.11470
C303        C  0.31072379  0.34303566  0.24306396    -0.09910
C304        C  0.28469085  0.32008691  0.27870336    -0.11470
C305        C  0.32609876  0.38169443  0.00911082    -0.09910
C306        C  0.33222389  0.37856690  0.05465191    -0.11470
C307        C  0.66033476  0.69338509  0.25551661    -0.09910
C308        C  0.63643395  0.66611986  0.22206794    -0.11470
C309        C  0.58923519  0.63401582  0.03820639    -0.09910
C310        C  0.58285507  0.63744054  0.99281114    -0.11470
C311        C  0.49891518  0.51254795  0.16970396    -0.09910
C312        C  0.46142266  0.47552240  0.17194194    -0.11470
loop_ 
_geom_bond_atom_site_label_1 
_geom_bond_atom_site_label_2 
_geom_bond_distance 
_geom_bond_site_symmetry_2 
_ccdc_geom_bond_type 
C1            C2   1.404       .  A
C1            C6   1.404       .  A
C1          C308   1.437       .  S
C2            C3   1.400       .  A
C2            H7   1.084       .  S
C3            C4   1.397       .  A
C3          C311   1.438       .  S
C4            C5   1.398       .  A
C4            H8   1.086       .  S
C5            C6   1.400       .  A
C5          C309   1.438       .  S
C6            H9   1.085       .  S
C10          C11   1.403       .  A
C10          C15   1.404       .  A
C10         C303   1.436       .  S
C11          C12   1.399       .  A
C11          H16   1.084       .  S
C12          C13   1.398       .  A
C12         C312   1.438       .  S
C13          C14   1.399       .  A
C13          H17   1.086       .  S
C14          C15   1.399       .  A
C14         C306   1.438       .  S
C15          H18   1.085       .  S
C19          C20   1.404       .  A
C19          C24   1.404       .  A
C19         C299   1.437       .  S
C20          C21   1.400       .  A
C20          H25   1.085       .  S
C21          C22   1.398       .  A
C21         C305   1.437   1_556  S
C22          C23   1.397       .  A
C22          H26   1.086       .  S
C23          C24   1.400       .  A
C23         C301   1.438       .  S
C24          H27   1.084       .  S
C28          C29   1.404       .  A
C28          C33   1.403       .  A
C28         C297   1.436       .  S
C29          C30   1.400       .  A
C29          H34   1.085       .  S
C30          C31   1.399       .  A
C30         C310   1.438       .  S
C31          C32   1.398       .  A
C31          H35   1.086       .  S
C32          C33   1.399       .  A
C32         C302   1.438       .  S
C33          H36   1.084       .  S
C37          C38   1.406       .  A
C37          C42   1.405       .  A
C37         C292   1.440       .  S
C38          C39   1.402       .  A
C38          H43   1.084       .  S
C39          C40   1.398       .  A
C39         C293   1.440       .  S
C40          C41   1.398       .  A
C40          H44   1.086       .  S
C41          C42   1.400       .  A
C41         C295   1.439       .  S
C42          H45   1.084       .  S
C46          C47   1.404       .  A
C46          C51   1.406       .  A
C46         C288   1.439       .  S
C47          C48   1.400       .  A
C47          H52   1.084       .  S
C48          C49   1.398       .  A
C48         C296   1.439       .  S
C49          C50   1.399       .  A
C49          H53   1.086       .  S
C50          C51   1.401       .  A
C50         C290   1.440       .  S
C51          H54   1.085       .  S
C55          C56   1.406   1_565  A
C55          C60   1.405       .  A
C55         C283   1.440       .  S
C56          C57   1.402       .  A
C56          H61   1.084       .  S
C57          C58   1.398   1_545  A
C57         C289   1.440   1_556  S
C58          C59   1.398       .  A
C58          H62   1.086       .  S
C59          C60   1.400       .  A
C59         C286   1.439       .  S
C60          H63   1.084       .  S
C64          C65   1.404       .  A
C64          C69   1.406   1_565  A
C64         C281   1.440       .  S
C65          C66   1.400       .  A
C65          H70   1.084       .  S
C66          C67   1.398       .  A
C66         C285   1.439       .  S
C67          C68   1.399   1_565  A
C67          H71   1.086       .  S
C68          C69   1.401       .  A
C68         C294   1.440       .  S
C69          H72   1.084       .  S
O73          C76   1.266       .  A
O73         Cd78   2.477       .  S
C74          O83   1.264       .  A
C74          O79   1.266       .  A
C74          C87   1.465       .  S
O75          C81   1.268       .  A
O75         Cd78   2.510       .  S
C76          O84   1.265       .  A
C76         C100   1.469       .  S
C77         C307   1.433       .  S
C77          O82   1.265       .  A
C77          O80   1.263       .  A
Cd78         O85   2.404       .  S
Cd78         O84   2.468       .  S
Cd78         O83   2.459       .  S
Cd78         O79   2.471       .  S
Cd78         O82   2.464       .  S
Cd78         O80   2.452       .  S
C81          O85   1.262       .  A
C81         C159   1.463       .  S
O86          C89   1.265       .  A
O86         Cd91   2.456   1_455  S
C87          O96   1.265       .  A
C87          O92   1.265       .  A
O88          C94   1.266       .  A
O88         Cd91   2.479       .  S
C89          O97   1.265       .  A
C89         C141   1.465       .  S
C90          O95   1.269       .  A
C90          O93   1.262       .  A
C90         C168   1.466       .  S
Cd91         O98   2.449       .  S
Cd91         O97   2.471   1_655  S
Cd91         O96   2.463       .  S
Cd91         O92   2.465       .  S
Cd91         O95   2.521       .  S
Cd91         O93   2.404       .  S
C94         C280   1.434       .  S
C94          O98   1.262       .  A
O99         C102   1.265       .  A
O99        Cd104   2.476       .  S
C100        O109   1.265       .  A
C100        O105   1.265       .  A
O101        C107   1.267       .  A
O101       Cd104   2.518       .  S
C102        O110   1.265       .  A
C102        C113   1.469       .  S
C103        C291   1.436       .  S
C103        O108   1.264       .  A
C103        O106   1.263       .  A
Cd104       O111   2.412       .  S
Cd104       O110   2.474       .  S
Cd104       O109   2.474   1_545  S
Cd104       O105   2.479   1_545  S
Cd104       O108   2.472       .  S
Cd104       O106   2.465       .  S
C107        O111   1.262       .  A
C107        C185   1.466       .  S
O112        C115   1.265       .  A
O112       Cd117   2.463   1_455  S
C113        O122   1.265       .  A
C113        O118   1.265       .  A
O114        C120   1.268       .  A
O114       Cd117   2.520       .  S
C115        O123   1.265       .  A
C115        C128   1.465       .  S
C116        C277   1.436       .  S
C116        O121   1.265       .  A
C116        O119   1.263       .  A
Cd117       O124   2.407       .  S
Cd117       O123   2.466   1_655  S
Cd117       O122   2.474       .  S
Cd117       O118   2.473       .  S
Cd117       O121   2.478       .  S
Cd117       O119   2.457       .  S
C120        O124   1.262       .  A
C120        C198   1.466       .  S
O125        C128   1.266       .  A
O125       Cd130   2.459       .  S
C126        O135   1.265       .  A
C126        O131   1.266       .  A
C126        C139   1.462       .  S
O127        C133   1.267       .  A
O127       Cd130   2.472       .  S
C128        O136   1.266       .  A
C129        O134   1.269       .  A
C129        O132   1.262       .  A
C129        C211   1.463       .  S
Cd130       O137   2.433       .  S
Cd130       O136   2.461       .  S
Cd130       O135   2.452       .  S
Cd130       O131   2.455       .  S
Cd130       O134   2.510       .  S
Cd130       O132   2.398       .  S
C133        C304   1.431       .  S
C133        O137   1.262       .  A
O138        C141   1.265       .  A
O138       Cd143   2.453   1_565  S
C139        O148   1.265       .  A
C139        O144   1.265       .  A
O140        C146   1.270       .  A
O140       Cd143   2.520       .  S
C141        O149   1.266       .  A
C142        C287   1.435       .  S
C142        O147   1.267       .  A
C142        O145   1.262       .  A
Cd143       O150   2.402       .  S
Cd143       O149   2.469   1_545  S
Cd143       O148   2.458       .  S
Cd143       O144   2.454       .  S
Cd143       O147   2.483       .  S
Cd143       O145   2.444       .  S
C146        O150   1.262       .  A
C146        C224   1.465       .  S
O151        C154   1.266       .  A
O151       Cd156   2.458       .  S
C152        O161   1.265       .  A
C152        O157   1.266       .  A
C152        C180   1.462       .  S
O153        C159   1.269       .  A
O153       Cd156   2.511       .  S
C154        O162   1.266       .  A
C154        C167   1.465       .  S
C155        C298   1.431       .  S
C155        O160   1.267       .  A
C155        O158   1.262       .  A
Cd156       O163   2.397       .  S
Cd156       O162   2.460       .  S
Cd156       O161   2.453       .  S
Cd156       O157   2.455       .  S
Cd156       O160   2.472       .  S
Cd156       O158   2.432       .  S
C159        O163   1.262       .  A
O164        C167   1.265       .  A
O164       Cd169   2.462       .  S
C165        O174   1.265       .  A
C165        O170   1.265   1_455  A
C165        C217   1.469       .  S
O166        C172   1.265       .  A
O166       Cd169   2.477       .  S
C167        O175   1.265       .  A
C168        O173   1.268       .  A
C168        O171   1.262       .  A
Cd169       O176   2.456       .  S
Cd169       O175   2.467       .  S
Cd169       O174   2.472   1_655  S
Cd169       O170   2.471       .  S
Cd169       O173   2.521       .  S
Cd169       O171   2.406       .  S
C172        C276   1.435       .  S
C172        O176   1.263       .  A
O177        C180   1.265       .  A
O177       Cd182   2.453   1_565  S
C178        O187   1.266       .  A
C178        O183   1.265       .  A
C178        C193   1.465       .  S
O179        C185   1.270       .  A
O179       Cd182   2.520       .  S
C180        O188   1.265       .  A
C181        C282   1.435   1_545  S
C181        O186   1.267       .  A
C181        O184   1.262       .  A
Cd182       O189   2.403       .  S
Cd182       O188   2.458   1_545  S
Cd182       O187   2.469       .  S
Cd182       O183   2.454       .  S
Cd182       O186   2.484       .  S
Cd182       O184   2.445       .  S
C185        O189   1.262       .  A
O190        C193   1.265       .  A
O190       Cd195   2.457       .  S
C191        O200   1.265       .  A
C191        O196   1.265   1_455  A
C191        C206   1.465       .  S
O192        C198   1.269       .  A
O192       Cd195   2.520       .  S
C193        O201   1.265       .  A
C194        C273   1.434       .  S
C194        O199   1.266       .  A
C194        O197   1.262       .  A
Cd195       O202   2.406       .  S
Cd195       O201   2.470       .  S
Cd195       O200   2.464   1_655  S
Cd195       O196   2.467       .  S
Cd195       O199   2.478       .  S
Cd195       O197   2.449       .  S
C198        O202   1.262       .  A
O203        C206   1.266       .  A
O203       Cd208   2.471       .  S
C204        O213   1.265       .  A
C204        O209   1.266       .  A
C204        C219   1.469       .  S
O205        C211   1.268       .  A
O205       Cd208   2.509       .  S
C206        O214   1.264       .  A
C207        C300   1.433       .  S
C207        O212   1.265       .  A
C207        O210   1.263       .  A
Cd208       O215   2.404       .  S
Cd208       O214   2.458       .  S
Cd208       O213   2.469       .  S
Cd208       O209   2.477       .  S
Cd208       O212   2.464       .  S
Cd208       O210   2.452       .  S
C211        O215   1.262       .  A
O216        C219   1.265       .  A
O216       Cd221   2.478       .  S
C217        O226   1.265       .  A
C217        O222   1.265       .  A
O218        C224   1.267       .  A
O218       Cd221   2.518       .  S
C219        O227   1.265       .  A
C220        C284   1.435   1_545  S
C220        O225   1.264       .  A
C220        O223   1.263       .  A
Cd221       O228   2.411       .  S
Cd221       O227   2.473       .  S
Cd221       O226   2.474   1_545  S
Cd221       O222   2.476   1_545  S
Cd221       O225   2.471       .  S
Cd221       O223   2.464       .  S
C224        O228   1.262       .  A
C229        C230   1.404       .  A
C229        C234   1.406       .  A
C229        C274   1.439       .  S
C230        C231   1.400       .  A
C230        H235   1.084       .  S
C231        C232   1.398       .  A
C231        C271   1.438       .  S
C232        C233   1.398       .  A
C232        H236   1.086       .  S
C233        C234   1.401       .  A
C233        C269   1.440       .  S
C234        H237   1.084       .  S
C238        C239   1.404       .  A
C238        C243   1.406       .  A
C238        C275   1.440       .  S
C239        C240   1.400       .  A
C239        H244   1.084       .  S
C240        C241   1.398       .  A
C240        C272   1.438       .  S
C241        C242   1.398       .  A
C241        H245   1.086       .  S
C242        C243   1.401       .  A
C242        C267   1.440   1_556  S
C243        H246   1.084       .  S
C247        C248   1.406       .  A
C247        C252   1.404       .  A
C247        C278   1.440       .  S
C248        C249   1.401       .  A
C248        H253   1.084       .  S
C249        C250   1.398       .  A
C249        C270   1.440       .  S
C250        C251   1.398       .  A
C250        H254   1.086       .  S
C251        C252   1.400       .  A
C251        C265   1.438       .  S
C252        H255   1.084       .  S
C256        C257   1.406       .  A
C256        C261   1.404       .  A
C256        C279   1.439       .  S
C257        C258   1.401       .  A
C257        H262   1.084       .  S
C258        C259   1.399       .  A
C258        C268   1.440       .  S
C259        C260   1.398       .  A
C259        H263   1.086       .  S
C260        C261   1.400       .  A
C260        C266   1.438       .  S
C261        H264   1.084       .  S
C265        C266   1.205       .  T
C267        C268   1.206       .  T
C269        C270   1.206   1_556  T
C271        C272   1.205       .  T
C273        C274   1.205       .  T
C275        C276   1.206       .  T
C277        C278   1.206       .  T
C279        C280   1.206       .  T
C281        C282   1.206       .  T
C283        C284   1.206       .  T
C285        C286   1.205       .  T
C287        C288   1.206       .  T
C289        C290   1.206       .  T
C291        C292   1.206       .  T
C293        C294   1.206   1_554  T
C295        C296   1.205       .  T
C297        C298   1.204       .  T
C299        C300   1.204       .  T
C301        C302   1.205       .  T
C303        C304   1.204       .  T
C305        C306   1.205       .  T
C307        C308   1.204       .  T
C309        C310   1.205   1_554  T
C311        C312   1.205       .  T
