geometry optimzed in LAMMPS
_audit_creation_date              2020-11-30 
_audit_creation_method            'lammps2cif' 
_symmetry_space_group_name_H-M    'P1' 
_symmetry_Int_Tables_number       1 
_symmetry_cell_setting            triclinic 
loop_ 
_symmetry_equiv_pos_as_xyz 
  x,y,z 
_cell_length_a                    26.36263961 
_cell_length_b                    40.51106590726119 
_cell_length_c                    38.20969096433204 
_cell_angle_alpha                 89.99143345975213 
_cell_angle_beta                  89.99831692098975 
_cell_angle_gamma                 90.25856961594904 
loop_ 
_atom_site_label 
_atom_site_type_symbol 
_atom_site_fract_x 
_atom_site_fract_y 
_atom_site_fract_z 
_atom_site_charge 
C1          C  0.00023161  0.70820028  0.02624963     0.02900
C2          C  0.95468797  0.69590287  0.01201503    -0.13300
C3          C  0.95524311  0.67191374  0.98548270     0.00400
C4          C  0.00202019  0.66035595  0.97309849    -0.11800
C5          C  0.04788485  0.67208836  0.98708028     0.02800
C6          C  0.04672248  0.69619497  0.01347807    -0.11200
H7          H  0.91870792  0.70424503  0.02236314     0.08400
H8          H  0.00280370  0.64241489  0.95207922     0.06000
H9          H  0.08205493  0.70542410  0.02423269     0.05800
C10         C  0.99606607  0.23800502  0.02214967     0.02900
C11         C  0.95031902  0.25034417  0.00865456    -0.13300
C12         C  0.95022449  0.27326152  0.98106273     0.00400
C13         C  0.99681747  0.28370999  0.96684012    -0.11800
C14         C  0.04311130  0.27166307  0.97984332     0.02800
C15         C  0.04226706  0.24880993  0.00757212    -0.11200
H16         H  0.91470511  0.24286361  0.02043798     0.08400
H17         H  0.99704057  0.30147187  0.94566440     0.06000
H18         H  0.07759252  0.23884929  0.01734772     0.05800
O19         O  0.45917755  0.51308534  0.87611747    -0.82100
C20         C  0.50316292  0.42985078  0.76062681     0.97300
O21         O  0.46383428  0.44710086  0.76483608    -0.71200
O22         O  0.41724511  0.43490034  0.82411947    -0.74800
Al23       Al  0.44065544  0.47436614  0.80249139     1.49000
C24         C  0.41435481  0.42939190  0.85655256     0.92500
O25         O  0.53861169  0.43539397  0.87581420    -0.81000
O26         O  0.58066403  0.51426176  0.82460728    -0.74600
Al27       Al  0.49890826  0.47429196  0.87289452     1.90100
O28         O  0.59398376  0.44788774  0.83517761    -0.73600
O29         O  0.53518446  0.50216345  0.76482185    -0.73500
O30         O  0.54245998  0.43555971  0.77839812    -0.79100
O31         O  0.45656735  0.51390958  0.77804521    -0.77300
O32         O  0.49911971  0.47455274  0.82610741    -1.13500
O33         O  0.40442053  0.50140141  0.83480139    -0.72700
C34         C  0.41723548  0.51811510  0.86126150     0.98000
C35         C  0.58069213  0.43054539  0.86107233     0.94400
Al36       Al  0.55788392  0.47494679  0.80278370     1.55600
O37         O  0.44052011  0.44622464  0.87782756    -0.77300
C38         C  0.49594519  0.51940909  0.76022423     0.98600
C39         C  0.58352020  0.51928228  0.85710847     0.93500
O40         O  0.55721534  0.50230540  0.87818662    -0.82600
C41         C  0.49582787  0.73817842  0.52194843     0.02900
C42         C  0.44888269  0.74941751  0.50928893    -0.13300
C43         C  0.44646355  0.77218231  0.48161920     0.00400
C44         C  0.49185831  0.78382010  0.46668692    -0.11800
C45         C  0.53927387  0.77310787  0.47899541     0.02800
C46         C  0.54084157  0.75010951  0.50657384    -0.11200
H47         H  0.41406742  0.73973705  0.52040593     0.08400
H48         H  0.49026376  0.80147433  0.44544167     0.06000
H49         H  0.57713009  0.74219631  0.51679151     0.05800
C50         C  0.49898842  0.20480179  0.53021327     0.02900
C51         C  0.54513123  0.19146606  0.51862267    -0.13300
C52         C  0.54606251  0.16641302  0.49326528     0.00400
C53         C  0.49998967  0.15458983  0.47959069    -0.11800
C54         C  0.45337519  0.16744761  0.49092001     0.02800
C55         C  0.45324142  0.19259427  0.51626767    -0.11200
H56         H  0.58042122  0.20013827  0.52995020     0.08400
H57         H  0.50046002  0.13599291  0.45923007     0.06000
H58         H  0.41751271  0.20272500  0.52510235     0.05800
O59         O  0.95847518  0.01285482  0.37654525    -0.82100
C60         C  0.00065543  0.93094859  0.25967880     0.97300
O61         O  0.96127985  0.94802510  0.26443540    -0.71200
O62         O  0.91551973  0.93491853  0.32371755    -0.74800
Al63       Al  0.93852237  0.97474599  0.30268822     1.49000
C64         C  0.91181779  0.92962271  0.35613025     0.92500
O65         O  0.03591829  0.93426233  0.37471347    -0.81000
O66         O  0.07882095  0.01427144  0.32541365    -0.74600
Al67       Al  0.99712304  0.97366588  0.37280896     1.90100
O68         O  0.09166415  0.94760984  0.33455108    -0.73600
O69         O  0.03295300  0.00360279  0.26555930    -0.73500
O70         O  0.04019861  0.93659649  0.27723649    -0.79100
O71         O  0.95408116  0.01460992  0.27888138    -0.77300
O72         O  0.99714134  0.97463677  0.32605536    -1.13500
O73         O  0.90271348  0.00136611  0.33575759    -0.72700
C74         C  0.91620464  0.01799684  0.36216298     0.98000
C75         C  0.07824131  0.92978730  0.36008945     0.94400
Al76       Al  0.05577552  0.97544199  0.30268019     1.55600
O77         O  0.93785525  0.94634420  0.37755762    -0.77300
C78         C  0.99352906  0.02078286  0.26139480     0.98600
C79         C  0.08209994  0.01849049  0.35801856     0.93500
O80         O  0.05613562  0.00093871  0.37873658    -0.82600
C81         C  0.59508269  0.15291903  0.48062784    -0.03600
C82         C  0.60029330  0.11894393  0.47397092    -0.09400
C83         C  0.64583653  0.10642818  0.46093966    -0.17100
C84         C  0.68684365  0.12761914  0.45445708     0.25100
C85         C  0.68233931  0.16138173  0.46141727    -0.18700
C86         C  0.63677267  0.17397771  0.47444218    -0.07600
C87         C  0.73276103  0.11463477  0.43959870    -0.14100
C88         C  0.76890846  0.10181744  0.42598175    -0.13800
C89         C  0.80840376  0.08373674  0.40858257     0.25000
C90         C  0.85492770  0.07813271  0.42517696    -0.19200
C91         C  0.89109285  0.05772386  0.40947288    -0.07700
C92         C  0.88088242  0.04254387  0.37708139    -0.03800
C93         C  0.83474256  0.04932113  0.36009470    -0.09100
C94         C  0.79880089  0.06975041  0.37577138    -0.16700
H95         H  0.56919142  0.10202691  0.47892952     0.11400
H96         H  0.64893788  0.08023576  0.45566012     0.10700
H97         H  0.71377420  0.17802537  0.45633509     0.10700
H98         H  0.63377499  0.20029081  0.47888361     0.11200
H99         H  0.86268647  0.08878564  0.45063470     0.11200
H100        H  0.92625154  0.05297540  0.42319569     0.11200
H101        H  0.82579554  0.03813975  0.33509028     0.11400
H102        H  0.76289499  0.07389102  0.36272186     0.10200
C103        C  0.11822141  0.04311679  0.37229525    -0.03600
C104        C  0.11607781  0.05235426  0.40776494    -0.09400
C105        C  0.15295225  0.07336892  0.42197433    -0.17100
C106        C  0.19250327  0.08531500  0.40098825     0.25100
C107        C  0.19422548  0.07689263  0.36547688    -0.18700
C108        C  0.15720786  0.05606253  0.35115516    -0.07600
C109        C  0.23326359  0.10414926  0.41638349    -0.14100
C110        C  0.26955022  0.11748700  0.42955487    -0.13800
C111        C  0.31508355  0.13036800  0.44542656     0.25000
C112        C  0.32086127  0.16424291  0.45163427    -0.19200
C113        C  0.36558227  0.17636812  0.46679982    -0.07700
C114        C  0.40511388  0.15471964  0.47585078    -0.03800
C115        C  0.39867310  0.12071569  0.46971345    -0.09100
C116        C  0.35403583  0.10868143  0.45460240    -0.16700
H117        H  0.08644863  0.04284997  0.42467038     0.11400
H118        H  0.15133981  0.07960678  0.44952744     0.10700
H119        H  0.22486062  0.08578506  0.34904204     0.10700
H120        H  0.16006617  0.04923215  0.32382521     0.11200
H121        H  0.29099396  0.18127796  0.44457131     0.11200
H122        H  0.36964790  0.20270411  0.47080728     0.11200
H123        H  0.42807600  0.10337262  0.47680892     0.11400
H124        H  0.34992577  0.08240803  0.45003234     0.10200
C125        C  0.58687847  0.78651345  0.46333551    -0.03600
C126        C  0.62901941  0.76602647  0.45727769    -0.09400
C127        C  0.67347037  0.77887389  0.44229301    -0.17100
C128        C  0.67638186  0.81233166  0.43318808     0.25100
C129        C  0.63468728  0.83282067  0.43912069    -0.18700
C130        C  0.59038217  0.82009057  0.45409398    -0.07600
C131        C  0.72213290  0.82621515  0.41843696    -0.14100
C132        C  0.75866332  0.84065062  0.40687837    -0.13800
C133        C  0.79997302  0.86092393  0.39432082     0.25000
C134        C  0.81282570  0.86121580  0.35874480    -0.19200
C135        C  0.85014142  0.88299309  0.34631969    -0.07700
C136        C  0.87518422  0.90470696  0.36938499    -0.03800
C137        C  0.86282506  0.90364664  0.40520291    -0.09100
C138        C  0.82539520  0.88200838  0.41750923    -0.16700
H139        H  0.62738747  0.74001660  0.46371813     0.11400
H140        H  0.70550178  0.76274425  0.43785131     0.10700
H141        H  0.63654824  0.85878509  0.43240105     0.10700
H142        H  0.55908978  0.83670028  0.45891386     0.11200
H143        H  0.79327838  0.84512753  0.34050005     0.11200
H144        H  0.85880969  0.88320807  0.31861549     0.11200
H145        H  0.88111609  0.92016650  0.42361676     0.11400
H146        H  0.81556793  0.88220143  0.44504483     0.10200
C147        C  0.11367555  0.90448308  0.37356646    -0.03600
C148        C  0.16170271  0.90066727  0.35802878    -0.09400
C149        C  0.19716481  0.87900848  0.37234078    -0.17100
C150        C  0.18524715  0.86071704  0.40230661     0.25100
C151        C  0.13700865  0.86350721  0.41737086    -0.18700
C152        C  0.10135427  0.88523524  0.40306962    -0.07600
C153        C  0.22372552  0.84053537  0.41829107    -0.14100
C154        C  0.25912345  0.82566434  0.43051917    -0.13800
C155        C  0.30454422  0.81013865  0.44339603     0.25000
C156        C  0.31145788  0.80490539  0.47930537    -0.19200
C157        C  0.35718993  0.79192902  0.49174967    -0.07700
C158        C  0.39670442  0.78413412  0.46840247    -0.03800
C159        C  0.38886189  0.78883619  0.43231101    -0.09100
C160        C  0.34319857  0.80179943  0.41995793    -0.16700
H161        H  0.17241874  0.91501746  0.33526357     0.11400
H162        H  0.23434685  0.87707072  0.36044603     0.10700
H163        H  0.12734758  0.84945864  0.44057606     0.10700
H164        H  0.06468821  0.88755018  0.41558139     0.11200
H165        H  0.28193141  0.81144706  0.49772739     0.11200
H166        H  0.36218755  0.78892256  0.51969458     0.11200
H167        H  0.41812331  0.78258084  0.41360129     0.11400
H168        H  0.33831804  0.80575143  0.39211503     0.10200
C169        C  0.50310478  0.40306179  0.73431101    -0.03600
C170        C  0.45924901  0.39642310  0.71449607    -0.09400
C171        C  0.45918973  0.37142688  0.68931583    -0.17100
C172        C  0.50286816  0.35271754  0.68358049     0.25100
C173        C  0.54664276  0.35898323  0.70327535    -0.18700
C174        C  0.54680459  0.38399310  0.72851835    -0.07600
C175        C  0.50266970  0.32726304  0.65732130    -0.14100
C176        C  0.50178565  0.30614598  0.63510066    -0.13800
C177        C  0.50050121  0.28100759  0.60850674     0.25000
C178        C  0.53526233  0.28195560  0.58085235    -0.19200
C179        C  0.53449548  0.25732243  0.55524708    -0.07700
C180        C  0.49886740  0.23139013  0.55695978    -0.03800
C181        C  0.46375196  0.23082557  0.58468023    -0.09100
C182        C  0.46463676  0.25547729  0.61029839    -0.16700
H183        H  0.42497818  0.41060187  0.71835861     0.11400
H184        H  0.42509619  0.36676082  0.67423769     0.10700
H185        H  0.58066372  0.34461764  0.69905116     0.10700
H186        H  0.58114018  0.38847091  0.74337219     0.11200
H187        H  0.56302979  0.30168563  0.57912174     0.11200
H188        H  0.56155477  0.25866036  0.53396171     0.11200
H189        H  0.43626386  0.21099849  0.58690610     0.11400
H190        H  0.43757486  0.25450298  0.63162226     0.10200
C191        C  0.49622097  0.54586075  0.73334211    -0.03600
C192        C  0.53799200  0.54969979  0.71071620    -0.09400
C193        C  0.53818206  0.57434346  0.68505621    -0.17100
C194        C  0.49678072  0.59561211  0.68165267     0.25100
C195        C  0.45509846  0.59207982  0.70410737    -0.18700
C196        C  0.45474525  0.56735921  0.72974921    -0.07600
C197        C  0.49708238  0.62088036  0.65500540    -0.14100
C198        C  0.49767160  0.64176500  0.63242580    -0.13800
C199        C  0.49820523  0.66643359  0.60515953     0.25000
C200        C  0.46514519  0.69333626  0.60679991    -0.19200
C201        C  0.46477034  0.71685417  0.57997203    -0.07700
C202        C  0.49756393  0.71383129  0.55107850    -0.03800
C203        C  0.53114519  0.68695350  0.54987874    -0.09100
C204        C  0.53134922  0.66339710  0.57669785    -0.16700
H205        H  0.57046357  0.53353015  0.71269127     0.11400
H206        H  0.57063052  0.57677042  0.66782576     0.10700
H207        H  0.42281370  0.60838148  0.70174989     0.10700
H208        H  0.42205562  0.56510090  0.74676137     0.11200
H209        H  0.43944367  0.69604938  0.62873165     0.11200
H210        H  0.43895205  0.73749085  0.58186954     0.11200
H211        H  0.55646124  0.68376743  0.52782729     0.11400
H212        H  0.55705840  0.64266709  0.57508163     0.10200
C213        C  0.09213692  0.28345645  0.96475641    -0.03600
C214        C  0.09714131  0.28877182  0.92848635    -0.09400
C215        C  0.14212435  0.30171569  0.91454587    -0.17100
C216        C  0.18293868  0.30946574  0.93654247     0.25100
C217        C  0.17883156  0.30352891  0.97255256    -0.18700
C218        C  0.13383685  0.29058423  0.98657099    -0.07600
C219        C  0.22781796  0.32512199  0.92237089    -0.14100
C220        C  0.26372004  0.34004795  0.91048931    -0.13800
C221        C  0.30449112  0.36010040  0.89660929     0.25000
C222        C  0.33827352  0.37601098  0.91937131    -0.19200
C223        C  0.37505224  0.39775004  0.90623975    -0.07700
C224        C  0.37856965  0.40398546  0.87005957    -0.03800
C225        C  0.34548755  0.38709373  0.84726670    -0.09100
C226        C  0.30866882  0.36537425  0.86048174    -0.16700
H227        H  0.06617412  0.28304088  0.91086578     0.11400
H228        H  0.14477119  0.30614931  0.88664024     0.10700
H229        H  0.21001850  0.30955501  0.98990607     0.10700
H230        H  0.13115461  0.28713177  0.01461081     0.11200
H231        H  0.33543382  0.37221646  0.94737486     0.11200
H232        H  0.39994686  0.41026005  0.92451855     0.11200
H233        H  0.34714720  0.39131084  0.81930199     0.11400
H234        H  0.28270572  0.35329097  0.84257200     0.10200
C235        C  0.90156367  0.28676246  0.96754997    -0.03600
C236        C  0.89757579  0.32039413  0.95881267    -0.09400
C237        C  0.85200931  0.33315412  0.94607893    -0.17100
C238        C  0.80962658  0.31260662  0.94192681     0.25100
C239        C  0.81302176  0.27911336  0.95061231    -0.18700
C240        C  0.85867358  0.26625587  0.96336453    -0.07600
C241        C  0.76311072  0.32625256  0.92852143    -0.14100
C242        C  0.72674660  0.34040216  0.91669461    -0.13800
C243        C  0.68729362  0.36046667  0.90172983     0.25000
C244        C  0.64416334  0.36864854  0.92126350    -0.19200
C245        C  0.60844249  0.39072640  0.90768648    -0.07700
C246        C  0.61577203  0.40507686  0.87451848    -0.03800
C247        C  0.65856455  0.39602011  0.85478450    -0.09100
C248        C  0.69396881  0.37386401  0.86829368    -0.16700
H249        H  0.92951408  0.33697487  0.96225183     0.11400
H250        H  0.84980877  0.35913289  0.93952618     0.10700
H251        H  0.78051706  0.26293174  0.94740933     0.10700
H252        H  0.86063495  0.24019755  0.96948775     0.11200
H253        H  0.63874955  0.35858739  0.94727356     0.11200
H254        H  0.57595285  0.39729603  0.92352435     0.11200
H255        H  0.66516365  0.40649133  0.82909433     0.11400
H256        H  0.72725459  0.36782314  0.85298127     0.10200
C257        C  0.99364293  0.04801478  0.23542596    -0.02600
C258        C  0.95058673  0.06797796  0.23078158    -0.09400
C259        C  0.95066283  0.09327236  0.20579201    -0.17100
C260        C  0.99369933  0.09897257  0.18512554     0.25100
C261        C  0.03677707  0.07938019  0.18973046    -0.18700
C262        C  0.03682040  0.05412301  0.21469435    -0.07600
C263        C  0.99345502  0.12441495  0.15870248    -0.14100
C264        C  0.99359929  0.14499593  0.13583000    -0.13800
C265        C  0.99384112  0.16868500  0.10763493     0.25000
C266        C  0.02925491  0.19455490  0.10728824    -0.19200
C267        C  0.03011069  0.21706390  0.07948410    -0.07700
C268        C  0.99542867  0.21403624  0.05165003    -0.03800
C269        C  0.95983342  0.18804161  0.05233463    -0.09100
C270        C  0.95912849  0.16553167  0.08010070    -0.16700
H271        H  0.91677402  0.06396644  0.24633416     0.11400
H272        H  0.91705572  0.10823996  0.20244750     0.10700
H273        H  0.07028104  0.08349576  0.17386617     0.10700
H274        H  0.07058165  0.03924126  0.21758225     0.11200
H275        H  0.05628020  0.19729227  0.12846463     0.11200
H276        H  0.05750070  0.23705755  0.07993565     0.11200
H277        H  0.93299625  0.18484576  0.03113360     0.11400
H278        H  0.93168168  0.14554786  0.07998616     0.10200
C279        C  0.09669382  0.65847270  0.97435318    -0.03600
C280        C  0.10176684  0.62428093  0.96912988    -0.09400
C281        C  0.14690747  0.61124238  0.95611030    -0.17100
C282        C  0.18767005  0.63212765  0.94808085     0.25100
C283        C  0.18328703  0.66619141  0.95352442    -0.18700
C284        C  0.13807487  0.67931641  0.96670909    -0.07600
C285        C  0.23327793  0.61830306  0.93356252    -0.14100
C286        C  0.26911006  0.60438414  0.92075546    -0.13800
C287        C  0.30870479  0.58516477  0.90483985     0.25000
C288        C  0.35241727  0.57711495  0.92376837    -0.19200
C289        C  0.38880223  0.55616516  0.90915622    -0.07700
C290        C  0.38159388  0.54280806  0.87552487    -0.03800
C291        C  0.33814653  0.55171712  0.85640173    -0.09100
C292        C  0.30201556  0.57276002  0.87097524    -0.16700
H293        H  0.07078454  0.60759771  0.97523307     0.11400
H294        H  0.14989307  0.58484705  0.95207663     0.10700
H295        H  0.21457351  0.68259927  0.94728944     0.10700
H296        H  0.13504865  0.70575652  0.97021821     0.11200
H297        H  0.35784159  0.58643451  0.95008334     0.11200
H298        H  0.42173492  0.54963259  0.92456999     0.11200
H299        H  0.33157876  0.54192590  0.83041187     0.11400
H300        H  0.26826753  0.57873968  0.85612495     0.10200
C301        C  0.90719684  0.65831000  0.97103402    -0.03600
C302        C  0.86584771  0.67904768  0.96366592    -0.09400
C303        C  0.82120885  0.66606242  0.94921274    -0.17100
C304        C  0.81737430  0.63224163  0.94206107     0.25100
C305        C  0.85809025  0.61142839  0.94969647    -0.18700
C306        C  0.90264227  0.62431937  0.96408242    -0.07600
C307        C  0.77208964  0.61859283  0.92663848    -0.14100
C308        C  0.73590567  0.60495242  0.91371980    -0.13800
C309        C  0.69486835  0.58609107  0.89878287     0.25000
C310        C  0.65640370  0.57364200  0.92036454    -0.19200
C311        C  0.61908485  0.55276051  0.90655574    -0.07700
C312        C  0.61973788  0.54408875  0.87090231    -0.03800
C313        C  0.65762126  0.55756691  0.84916507    -0.09100
C314        C  0.69506640  0.57832237  0.86308257    -0.16700
H315        H  0.86839899  0.70534509  0.96845932     0.11400
H316        H  0.78990211  0.68240401  0.94338654     0.10700
H317        H  0.85545410  0.58519410  0.94443367     0.10700
H318        H  0.93345776  0.60763387  0.96999817     0.11200
H319        H  0.65598027  0.57940029  0.94805583     0.11200
H320        H  0.59038539  0.54283231  0.92394021     0.11200
H321        H  0.65932336  0.55121047  0.82166057     0.11400
H322        H  0.72483811  0.58766013  0.84617443     0.10200
C323        C  0.00024745  0.90425389  0.23316609    -0.03600
C324        C  0.95542636  0.89649508  0.21485357    -0.09400
C325        C  0.95486323  0.87121547  0.18993682    -0.17100
C326        C  0.99901928  0.85335171  0.18292242     0.25100
C327        C  0.04381638  0.86088475  0.20097539    -0.18700
C328        C  0.04446664  0.88613824  0.22596250    -0.07600
C329        C  0.99839960  0.82749635  0.15702134    -0.14100
C330        C  0.99790517  0.80615820  0.13498527    -0.13800
C331        C  0.99772481  0.78114785  0.10816746     0.25000
C332        C  0.03235751  0.75509493  0.10957912    -0.19200
C333        C  0.03308594  0.73129148  0.08306290    -0.07700
C334        C  0.99914058  0.73324328  0.05470118    -0.03800
C335        C  0.96414417  0.75936864  0.05371251    -0.09100
C336        C  0.96349009  0.78313657  0.08025540    -0.16700
H337        H  0.92072220  0.90990336  0.21982219     0.11400
H338        H  0.91997806  0.86562810  0.17611611     0.10700
H339        H  0.07825249  0.84725639  0.19572483     0.10700
H340        H  0.07957442  0.89149944  0.23958248     0.11200
H341        H  0.05892982  0.75323647  0.13111777     0.11200
H342        H  0.05990595  0.71120680  0.08490726     0.11200
H343        H  0.93787507  0.76176712  0.03208436     0.11400
H344        H  0.93658582  0.80322803  0.07883730     0.10200
loop_ 
_geom_bond_atom_site_label_1 
_geom_bond_atom_site_label_2 
_geom_bond_distance 
_geom_bond_site_symmetry_2 
_ccdc_geom_bond_type 
C1            C2   1.407   1_455  A
C1            C6   1.408       .  A
C1          C334   1.487   1_455  S
C2            C3   1.405   1_554  A
C2            H7   1.083       .  S
C3            C4   1.403   1_655  A
C3          C301   1.485       .  S
C4            C5   1.403       .  A
C4            H8   1.084       .  S
C5            C6   1.404   1_556  A
C5          C279   1.484       .  S
C6            H9   1.083       .  S
C10          C11   1.406       .  A
C10          C15   1.407   1_655  A
C10         C268   1.488       .  S
C11          C12   1.405   1_554  A
C11          H16   1.083       .  S
C12          C13   1.407       .  A
C12         C235   1.489       .  S
C13          C14   1.407   1_655  A
C13          H17   1.083       .  S
C14          C15   1.407   1_556  A
C14         C213   1.492       .  S
C15          H18   1.083       .  S
O19          C34   1.260       .  A
O19         Al27   1.897       .  S
C20         C169   1.480       .  S
C20          O30   1.259       .  A
C20          O21   1.263       .  A
O21         Al23   1.916       .  S
O22          C24   1.261       .  A
O22         Al23   1.900       .  S
Al23         O31   1.900       .  S
Al23         O33   1.909       .  S
Al23         O32   1.786       .  S
C24         C224   1.486       .  S
C24          O37   1.264       .  A
O25          C35   1.260       .  A
O25         Al27   1.899       .  S
O26          C39   1.261       .  A
O26         Al36   1.893       .  S
Al27         O40   1.917       .  S
Al27         O37   1.919       .  S
Al27         O32   1.788       .  S
O28          C35   1.262       .  A
O28         Al36   1.910       .  S
O29          C38   1.263       .  A
O29         Al36   1.919       .  S
O30         Al36   1.891       .  S
O31          C38   1.260       .  A
O32         Al36   1.787       .  S
O33          C34   1.262       .  A
C34         C290   1.480       .  S
C35         C246   1.481       .  S
C38         C191   1.484       .  S
C39         C312   1.480       .  S
C39          O40   1.264       .  A
C41          C42   1.406       .  A
C41          C46   1.408       .  A
C41         C202   1.488       .  S
C42          C43   1.404       .  A
C42          H47   1.083       .  S
C43          C44   1.405       .  A
C43         C158   1.489       .  S
C44          C45   1.406       .  A
C44          H48   1.083       .  S
C45          C46   1.407       .  A
C45         C125   1.491       .  S
C46          H49   1.083       .  S
C50          C51   1.405       .  A
C50          C55   1.406       .  A
C50         C180   1.485       .  S
C51          C52   1.404       .  A
C51          H56   1.083       .  S
C52          C53   1.404       .  A
C52          C81   1.486       .  S
C53          C54   1.405       .  A
C53          H57   1.083       .  S
C54          C55   1.406       .  A
C54         C114   1.487       .  S
C55          H58   1.083       .  S
O59          C74   1.261       .  A
O59         Al67   1.896   1_545  S
C60         C323   1.482       .  S
C60          O70   1.260       .  A
C60          O61   1.263   1_455  A
O61         Al63   1.917       .  S
O62          C64   1.261       .  A
O62         Al63   1.899       .  S
Al63         O71   1.897   1_565  S
Al63         O73   1.913   1_565  S
Al63         O72   1.785       .  S
C64         C136   1.483       .  S
C64          O77   1.263       .  A
O65          C75   1.262       .  A
O65         Al67   1.901   1_455  S
O66          C79   1.260       .  A
O66         Al76   1.895   1_545  S
Al67         O80   1.918   1_665  S
Al67         O77   1.919       .  S
Al67         O72   1.787       .  S
O68          C75   1.263       .  A
O68         Al76   1.913       .  S
O69          C78   1.263   1_455  A
O69         Al76   1.919   1_545  S
O70         Al76   1.893       .  S
O71          C78   1.260       .  A
O72         Al76   1.785   1_655  S
O73          C74   1.263       .  A
C74          C92   1.480       .  S
C75         C147   1.482       .  S
C78         C257   1.484       .  S
C79         C103   1.480       .  S
C79          O80   1.263       .  A
C81          C82   1.407       .  A
C81          C86   1.408       .  A
C82          C83   1.397       .  A
C82          H95   1.083       .  S
C83          C84   1.399       .  A
C83          H96   1.084       .  S
C84          C85   1.399       .  A
C84          C87   1.439       .  S
C85          C86   1.399       .  A
C85          H97   1.084       .  S
C86          H98   1.083       .  S
C87          C88   1.205       .  T
C88          C89   1.439       .  S
C89          C90   1.400       .  A
C89          C94   1.399       .  A
C90          C91   1.400       .  A
C90          H99   1.083       .  S
C91          C92   1.408       .  A
C91         H100   1.083       .  S
C92          C93   1.407       .  A
C93          C94   1.396       .  A
C93         H101   1.083       .  S
C94         H102   1.084       .  S
C103        C104   1.407       .  A
C103        C108   1.407       .  A
C104        C105   1.399       .  A
C104        H117   1.083       .  S
C105        C106   1.400       .  A
C105        H118   1.084       .  S
C106        C107   1.400       .  A
C106        C109   1.441       .  S
C107        C108   1.399       .  A
C107        H119   1.083       .  S
C108        H120   1.083       .  S
C109        C110   1.207       .  T
C110        C111   1.441       .  S
C111        C112   1.400       .  A
C111        C116   1.399       .  A
C112        C113   1.401       .  A
C112        H121   1.083       .  S
C113        C114   1.408       .  A
C113        H122   1.083       .  S
C114        C115   1.407       .  A
C115        C116   1.397       .  A
C115        H123   1.083       .  S
C116        H124   1.084       .  S
C125        C126   1.409       .  A
C125        C130   1.408       .  A
C126        C127   1.402       .  A
C126        H139   1.083       .  S
C127        C128   1.401       .  A
C127        H140   1.083       .  S
C128        C129   1.399       .  A
C128        C131   1.443       .  S
C129        C130   1.397       .  A
C129        H141   1.084       .  S
C130        H142   1.083       .  S
C131        C132   1.208       .  T
C132        C133   1.443       .  S
C133        C134   1.401       .  A
C133        C138   1.400       .  A
C134        C135   1.401       .  A
C134        H143   1.083       .  S
C135        C136   1.408       .  A
C135        H144   1.083       .  S
C136        C137   1.407       .  A
C137        C138   1.398       .  A
C137        H145   1.083       .  S
C138        H146   1.084       .  S
C147        C148   1.408       .  A
C147        C152   1.408       .  A
C148        C149   1.396       .  A
C148        H161   1.083       .  S
C149        C150   1.399       .  A
C149        H162   1.084       .  S
C150        C151   1.401       .  A
C150        C153   1.441       .  S
C151        C152   1.402       .  A
C151        H163   1.083       .  S
C152        H164   1.083       .  S
C153        C154   1.207       .  T
C154        C155   1.442       .  S
C155        C156   1.400       .  A
C155        C160   1.399       .  A
C156        C157   1.401       .  A
C156        H165   1.083       .  S
C157        C158   1.408       .  A
C157        H166   1.083       .  S
C158        C159   1.408       .  A
C159        C160   1.398       .  A
C159        H167   1.083       .  S
C160        H168   1.084       .  S
C169        C170   1.407       .  A
C169        C174   1.407       .  A
C170        C171   1.397       .  A
C170        H183   1.083       .  S
C171        C172   1.399       .  A
C171        H184   1.084       .  S
C172        C173   1.400       .  A
C172        C175   1.439       .  S
C173        C174   1.399       .  A
C173        H185   1.083       .  S
C174        H186   1.083       .  S
C175        C176   1.206       .  T
C176        C177   1.439       .  S
C177        C178   1.399       .  A
C177        C182   1.400       .  A
C178        C179   1.398       .  A
C178        H187   1.083       .  S
C179        C180   1.408       .  A
C179        H188   1.083       .  S
C180        C181   1.407       .  A
C181        C182   1.399       .  A
C181        H189   1.083       .  S
C182        H190   1.084       .  S
C191        C192   1.408       .  A
C191        C196   1.408       .  A
C192        C193   1.399       .  A
C192        H205   1.083       .  S
C193        C194   1.400       .  A
C193        H206   1.084       .  S
C194        C195   1.401       .  A
C194        C197   1.444       .  S
C195        C196   1.401       .  A
C195        H207   1.083       .  S
C196        H208   1.083       .  S
C197        C198   1.208       .  T
C198        C199   1.444       .  S
C199        C200   1.400       .  A
C199        C204   1.401       .  A
C200        C201   1.399       .  A
C200        H209   1.084       .  S
C201        C202   1.408       .  A
C201        H210   1.083       .  S
C202        C203   1.407       .  A
C203        C204   1.400       .  A
C203        H211   1.083       .  S
C204        H212   1.083       .  S
C213        C214   1.409       .  A
C213        C218   1.409       .  A
C214        C215   1.400       .  A
C214        H227   1.083       .  S
C215        C216   1.400       .  A
C215        H228   1.083       .  S
C216        C217   1.401       .  A
C216        C219   1.445       .  S
C217        C218   1.401       .  A
C217        H229   1.083       .  S
C218        H230   1.083   1_556  S
C219        C220   1.209       .  T
C220        C221   1.445       .  S
C221        C222   1.400       .  A
C221        C226   1.401       .  A
C222        C223   1.400       .  A
C222        H231   1.084       .  S
C223        C224   1.408       .  A
C223        H232   1.083       .  S
C224        C225   1.408       .  A
C225        C226   1.401       .  A
C225        H233   1.083       .  S
C226        H234   1.083       .  S
C235        C236   1.407       .  A
C235        C240   1.409       .  A
C236        C237   1.397       .  A
C236        H249   1.083       .  S
C237        C238   1.399       .  A
C237        H250   1.084       .  S
C238        C239   1.400       .  A
C238        C241   1.441       .  S
C239        C240   1.401       .  A
C239        H251   1.083       .  S
C240        H252   1.083       .  S
C241        C242   1.207       .  T
C242        C243   1.441       .  S
C243        C244   1.401       .  A
C243        C248   1.399       .  A
C244        C245   1.401       .  A
C244        H253   1.083       .  S
C245        C246   1.407       .  A
C245        H254   1.083       .  S
C246        C247   1.407       .  A
C247        C248   1.397       .  A
C247        H255   1.083       .  S
C248        H256   1.084       .  S
C257        C258   1.408       .  A
C257        C262   1.408   1_655  A
C258        C259   1.401       .  A
C258        H271   1.083       .  S
C259        C260   1.401       .  A
C259        H272   1.083       .  S
C260        C261   1.400   1_655  A
C260        C263   1.443       .  S
C261        C262   1.399       .  A
C261        H273   1.084       .  S
C262        H274   1.083       .  S
C263        C264   1.208       .  T
C264        C265   1.443       .  S
C265        C266   1.400   1_655  A
C265        C270   1.400       .  A
C266        C267   1.400       .  A
C266        H275   1.083       .  S
C267        C268   1.408   1_455  A
C267        H276   1.083       .  S
C268        C269   1.408       .  A
C269        C270   1.399       .  A
C269        H277   1.083       .  S
C270        H278   1.083       .  S
C279        C280   1.406       .  A
C279        C284   1.407       .  A
C280        C281   1.396       .  A
C280        H293   1.083       .  S
C281        C282   1.399       .  A
C281        H294   1.084       .  S
C282        C283   1.401       .  A
C282        C285   1.440       .  S
C283        C284   1.401       .  A
C283        H295   1.083       .  S
C284        H296   1.083       .  S
C285        C286   1.206       .  T
C286        C287   1.440       .  S
C287        C288   1.400       .  A
C287        C292   1.399       .  A
C288        C289   1.400       .  A
C288        H297   1.083       .  S
C289        C290   1.407       .  A
C289        H298   1.083       .  S
C290        C291   1.407       .  A
C291        C292   1.397       .  A
C291        H299   1.083       .  S
C292        H300   1.084       .  S
C301        C302   1.408       .  A
C301        C306   1.407       .  A
C302        C303   1.400       .  A
C302        H315   1.083       .  S
C303        C304   1.400       .  A
C303        H316   1.083       .  S
C304        C305   1.399       .  A
C304        C307   1.440       .  S
C305        C306   1.396       .  A
C305        H317   1.084       .  S
C306        H318   1.083       .  S
C307        C308   1.206       .  T
C308        C309   1.440       .  S
C309        C310   1.399       .  A
C309        C314   1.400       .  A
C310        C311   1.398       .  A
C310        H319   1.084       .  S
C311        C312   1.407       .  A
C311        H320   1.083       .  S
C312        C313   1.407       .  A
C313        C314   1.399       .  A
C313        H321   1.083       .  S
C314        H322   1.083       .  S
C323        C324   1.408   1_455  A
C323        C328   1.407       .  A
C324        C325   1.398       .  A
C324        H337   1.083       .  S
C325        C326   1.399       .  A
C325        H338   1.084       .  S
C326        C327   1.400   1_655  A
C326        C329   1.441       .  S
C327        C328   1.399       .  A
C327        H339   1.083       .  S
C328        H340   1.083       .  S
C329        C330   1.207       .  T
C330        C331   1.441       .  S
C331        C332   1.400   1_655  A
C331        C336   1.400       .  A
C332        C333   1.399       .  A
C332        H341   1.084       .  S
C333        C334   1.408   1_455  A
C333        H342   1.083       .  S
C334        C335   1.408       .  A
C335        C336   1.399       .  A
C335        H343   1.083       .  S
C336        H344   1.083       .  S
