geometry optimzed in LAMMPS
_audit_creation_date              2020-11-30 
_audit_creation_method            'lammps2cif' 
_symmetry_space_group_name_H-M    'P1' 
_symmetry_Int_Tables_number       1 
_symmetry_cell_setting            triclinic 
loop_ 
_symmetry_equiv_pos_as_xyz 
  x,y,z 
_cell_length_a                    24.79703789 
_cell_length_b                    24.947830806926063 
_cell_length_c                    35.072754302202725 
_cell_angle_alpha                 88.55926491252774 
_cell_angle_beta                  88.83424328449553 
_cell_angle_gamma                 83.87290749347967 
loop_ 
_atom_site_label 
_atom_site_type_symbol 
_atom_site_fract_x 
_atom_site_fract_y 
_atom_site_fract_z 
_atom_site_charge 
O1          O  0.02837081  0.89229466  0.46945489    -0.79400
O2          O  0.12214084  0.05987027  0.03088043    -0.79500
O3          O  0.07096067  0.00877101  0.42633024    -0.79500
O4          O  0.97955944  0.96462505  0.08368861    -0.79400
O5          O  0.10703841  0.98039525  0.48148001    -0.79500
O6          O  0.02150735  0.90710147  0.04526979    -0.79500
O7          O  0.07118219  0.00804261  0.06481342    -0.79400
O8          O  0.99626690  0.93811861  0.41902267    -0.79500
C9          C  0.02128562  0.89581817  0.43400778     1.10200
C10         C  0.11547096  0.03060320  0.06027276     1.10100
C11         C  0.11069163  0.98590809  0.44555455     1.10300
C12         C  0.00426720  0.91832365  0.07835951     1.10100
O13         O  0.90703837  0.95253838  0.03759819    -0.79500
O14         O  0.06789871  0.09059641  0.46646175    -0.79500
O15         O  0.91036378  0.01744804  0.44382701    -0.79500
O16         O  0.98403898  0.07311676  0.08928634    -0.79400
O17         O  0.01666914  0.10281844  0.03432303    -0.79500
O18         O  0.91428339  0.93184866  0.46245659    -0.79500
O19         O  0.91285308  0.04056287  0.03762149    -0.79400
O20         O  0.98419736  0.09287242  0.44817226    -0.79500
Co21       Co  0.97061521  0.92425898  0.50349896     1.51500
Co22       Co  0.06020254  0.03610062  0.00810036     1.51700
Co23       Co  0.99008746  0.01465304  0.43796346     1.51600
Co24       Co  0.99079422  0.02653972  0.04717699     1.51500
O25         O  0.99805123  0.99657172  0.49472803    -1.40800
C26         C  0.88562551  0.00082467  0.04297719     1.10200
C27         C  0.02745337  0.11516859  0.44977130     1.10300
C28         C  0.88872056  0.97374943  0.44730742     1.10200
C29         C  0.99791025  0.11184243  0.06855105     1.10200
C30         C  0.99016894  0.55403227  0.22649878     0.03000
C31         C  0.98508330  0.56168620  0.26633986     0.02900
C32         C  0.97980008  0.51718747  0.29087058    -0.17600
C33         C  0.97896696  0.46525698  0.27676546     0.03000
C34         C  0.98213968  0.45741624  0.23687393     0.02900
C35         C  0.98756228  0.50222988  0.21230790    -0.17600
H36         H  0.98839072  0.49737400  0.18169761     0.05000
H37         H  0.97529920  0.52316125  0.32133989     0.05000
C38         C  0.55713405  0.97781812  0.23021620     0.03000
C39         C  0.55287295  0.98211441  0.27031571     0.02900
C40         C  0.50172146  0.97949476  0.28829958    -0.17600
C41         C  0.45487455  0.97433700  0.26690017     0.03000
C42         C  0.45967036  0.97221188  0.22667301     0.02900
C43         C  0.51071300  0.97216508  0.20918959    -0.17600
H44         H  0.51414238  0.96805202  0.17850793     0.05000
H45         H  0.49840340  0.98164071  0.31900032     0.05000
C46         C  0.24768632  0.02884415  0.11605924     0.19400
C47         C  0.30259724  0.01706888  0.10608989    -0.18700
C48         C  0.34175429  0.00839652  0.13433539    -0.11000
C49         C  0.32672551  0.01232314  0.17317128     0.21600
C50         C  0.27200210  0.02588720  0.18309863    -0.20300
C51         C  0.23269333  0.03356542  0.15485096    -0.11200
C52         C  0.36790661  0.00603925  0.20349451    -0.15300
C53         C  0.41310239  0.97128970  0.20077562    -0.29200
C54         C  0.20698387  0.03755625  0.08551667    -0.03500
C55         C  0.15733948  0.02108322  0.08962160    -0.40000
H56         H  0.31513939  0.01414222  0.07637885     0.12800
H57         H  0.38388589  0.00000803  0.12566109     0.12400
H58         H  0.25967635  0.03026905  0.21276319     0.11800
H59         H  0.19076488  0.04422757  0.16333387     0.12100
H60         H  0.36149966  0.03188423  0.22799842     0.14800
H61         H  0.41933601  0.94606430  0.17592921     0.13600
H62         H  0.21888105  0.05578992  0.05859894     0.11300
H63         H  0.14673510  0.99959710  0.11556200     0.13300
C64         C  0.22876868  0.98076199  0.37257872     0.19400
C65         C  0.23482285  0.97716896  0.33283625    -0.18700
C66         C  0.28565160  0.97924785  0.31515370    -0.11000
C67         C  0.33153136  0.98536684  0.33700054     0.21600
C68         C  0.32535986  0.98956648  0.37665717    -0.20300
C69         C  0.27466526  0.98706791  0.39435284    -0.11200
C70         C  0.38563749  0.99054492  0.31923718    -0.15300
C71         C  0.40191088  0.96742600  0.28613602    -0.29200
C72         C  0.17345776  0.98347658  0.38997220    -0.03500
C73         C  0.16393783  0.97150830  0.42694448    -0.40000
H74         H  0.19992058  0.97358013  0.31535315     0.12800
H75         H  0.28840533  0.97787511  0.28436027     0.12400
H76         H  0.35987190  0.99526314  0.39399899     0.11800
H77         H  0.27139571  0.99217095  0.42486999     0.12100
H78         H  0.41261874  0.01411476  0.33408874     0.14800
H79         H  0.37489172  0.94329620  0.27183672     0.13600
H80         H  0.13960584  0.99815189  0.37197267     0.11300
H81         H  0.19689370  0.95461611  0.44493722     0.13300
C82         C  0.66649808  0.99289957  0.15192781     0.19400
C83         C  0.67404802  0.03083253  0.12260991    -0.18700
C84         C  0.71974258  0.02443573  0.09849153    -0.11000
C85         C  0.75865372  0.97955539  0.10321645     0.21600
C86         C  0.75070833  0.94133492  0.13223363    -0.20300
C87         C  0.70522816  0.94785046  0.15640488    -0.11200
C88         C  0.80794074  0.97065014  0.07862549    -0.15300
C89         C  0.83094870  0.01056712  0.06022969    -0.29200
C90         C  0.61581726  0.99926210  0.17521863    -0.03500
C91         C  0.61037407  0.97568561  0.20982067    -0.40000
H92         H  0.64423719  0.06534659  0.11816090     0.12800
H93         H  0.72371241  0.05401655  0.07583840     0.12400
H94         H  0.77986799  0.90619353  0.13623988     0.11800
H95         H  0.69996276  0.91670552  0.17774181     0.12100
H96         H  0.82905884  0.93014460  0.07870529     0.14800
H97         H  0.81288223  0.05202179  0.06187374     0.13600
H98         H  0.58146774  0.02446718  0.16333958     0.11300
H99         H  0.64535849  0.95439568  0.22367927     0.13300
C100        C  0.75569973  0.00004322  0.39021492     0.19400
C101        C  0.73988597  0.03395614  0.35895354    -0.18700
C102        C  0.69272764  0.02745078  0.33902341    -0.11000
C103        C  0.66009775  0.98649082  0.34985584     0.21600
C104        C  0.67485931  0.95386642  0.38194902    -0.20300
C105        C  0.72193253  0.96047683  0.40194208    -0.11200
C106        C  0.61021196  0.97695247  0.32893008    -0.15300
C107        C  0.60129193  0.99312957  0.29242528    -0.29200
C108        C  0.80749079  0.00728658  0.40957069    -0.03500
C109        C  0.83453874  0.96882362  0.43164791    -0.40000
H110        H  0.76445165  0.06538913  0.34961952     0.12800
H111        H  0.68197681  0.05504249  0.31548607     0.12400
H112        H  0.65008320  0.92270700  0.39144068     0.11800
H113        H  0.73115609  0.93468348  0.42667819     0.12100
H114        H  0.58165282  0.95291162  0.34338824     0.14800
H115        H  0.63192657  0.01346835  0.27714924     0.13600
H116        H  0.82577815  0.04432606  0.40342719     0.11300
H117        H  0.81865794  0.93037474  0.43652704     0.13300
C118        C  0.98432386  0.23292929  0.13579003     0.19400
C119        C  0.95798652  0.24473638  0.17083550    -0.18700
C120        C  0.96149538  0.29414874  0.18817027    -0.11000
C121        C  0.99203389  0.33298583  0.17085335     0.21600
C122        C  0.01845803  0.32093669  0.13582554    -0.20300
C123        C  0.01488680  0.27161040  0.11852100    -0.11200
C124        C  0.99847126  0.38607394  0.18799710    -0.15300
C125        C  0.97466737  0.40385990  0.22089644    -0.29200
C126        C  0.98197971  0.17869101  0.11952255    -0.03500
C127        C  0.99322607  0.16737190  0.08269282    -0.40000
H128        H  0.93472765  0.21544160  0.18499628     0.12800
H129        H  0.94054029  0.30085834  0.21516958     0.12400
H130        H  0.04261636  0.34966240  0.12187576     0.11800
H131        H  0.03744501  0.26366367  0.09221780     0.12100
H132        H  0.02513080  0.41146780  0.17283732     0.14800
H133        H  0.94943516  0.37869922  0.23734100     0.13600
H134        H  0.97156027  0.14655532  0.13890625     0.11300
H135        H  0.00210853  0.19893598  0.06245693     0.13300
C136        C  0.99725417  0.24281135  0.38601792     0.19400
C137        C  0.95034995  0.27657805  0.37634188    -0.18700
C138        C  0.95320507  0.32040598  0.35098714    -0.11000
C139        C  0.00321088  0.33116013  0.33447123     0.21600
C140        C  0.05008509  0.29726986  0.34394789    -0.20300
C141        C  0.04732265  0.25370006  0.36956837    -0.11200
C142        C  0.00742938  0.37551503  0.30585038    -0.15300
C143        C  0.97275324  0.42079949  0.30490104    -0.29200
C144        C  0.99160184  0.19412128  0.41052000    -0.03500
C145        C  0.03261365  0.16757059  0.43022496    -0.40000
H146        H  0.91117608  0.26854472  0.38804791     0.12800
H147        H  0.91595545  0.34465691  0.34349101     0.12400
H148        H  0.08895965  0.30427102  0.33120688     0.11800
H149        H  0.08415050  0.22768323  0.37523244     0.12100
H150        H  0.04144778  0.37179563  0.28570027     0.14800
H151        H  0.94202095  0.42786371  0.32721560     0.13600
H152        H  0.95207844  0.17898567  0.41177336     0.11300
H153        H  0.07176014  0.18318888  0.43088006     0.13300
C154        C  0.02601298  0.77829774  0.12839960     0.19400
C155        C  0.02631633  0.72637675  0.11367675    -0.18700
C156        C  0.02590040  0.68121087  0.13800025    -0.11000
C157        C  0.02596930  0.68700427  0.17767910     0.21600
C158        C  0.02731169  0.73858313  0.19252510    -0.20300
C159        C  0.02682965  0.78399912  0.16817616    -0.11200
C160        C  0.02545603  0.63993377  0.20420877    -0.15300
C161        C  0.99526860  0.59913472  0.19836162    -0.29200
C162        C  0.02590773  0.82468580  0.10097501    -0.03500
C163        C  0.00928835  0.87650284  0.10914265    -0.40000
H164        H  0.02638984  0.72074325  0.08314679     0.12800
H165        H  0.02631229  0.64177429  0.12573974     0.12400
H166        H  0.02801625  0.74378544  0.22307925     0.11800
H167        H  0.02794926  0.82309073  0.18058525     0.12100
H168        H  0.04838744  0.64062164  0.23017004     0.14800
H169        H  0.97361150  0.59820828  0.17181184     0.13600
H170        H  0.03690910  0.81485707  0.07161186     0.11300
H171        H  0.99525613  0.88766107  0.13763005     0.13300
C172        C  0.01784992  0.78455798  0.36019705     0.19400
C173        C  0.98938118  0.77992078  0.32644307    -0.18700
C174        C  0.98727632  0.72973046  0.30996214    -0.11000
C175        C  0.01356166  0.68258103  0.32707884     0.21600
C176        C  0.04344276  0.68741858  0.36010363    -0.20300
C177        C  0.04562659  0.73753580  0.37654241    -0.11200
C178        C  0.01187989  0.62772330  0.31162799    -0.15300
C179        C  0.98081448  0.61630831  0.28252823    -0.29200
C180        C  0.01364197  0.83817646  0.37862731    -0.03500
C181        C  0.03761198  0.84750500  0.41153724    -0.40000
H182        H  0.96775077  0.81525715  0.31305578     0.12800
H183        H  0.96479473  0.72866455  0.28400631     0.12400
H184        H  0.06461362  0.65199817  0.37371084     0.11800
H185        H  0.06823285  0.73823084  0.40244074     0.12100
H186        H  0.03845221  0.59496163  0.32442549     0.14800
H187        H  0.95448136  0.64754809  0.26821815     0.13600
H188        H  0.98575681  0.87020519  0.36625004     0.11300
H189        H  0.06509975  0.81669823  0.42523909     0.13300
O190        O  0.02765731  0.89203341  0.96934441    -0.79400
O191        O  0.12188336  0.05993387  0.53163965    -0.79500
O192        O  0.07005549  0.00850316  0.92571304    -0.79500
O193        O  0.97878797  0.96493122  0.58368031    -0.79400
O194        O  0.10661213  0.98038500  0.98076498    -0.79500
O195        O  0.02151282  0.90752391  0.54544164    -0.79500
O196        O  0.06992477  0.00934119  0.56579648    -0.79400
O197        O  0.99524230  0.93782300  0.91897769    -0.79500
C198        C  0.02051256  0.89560565  0.93391190     1.10200
C199        C  0.11454566  0.03136973  0.56126282     1.10100
C200        C  0.10990617  0.98565708  0.94481378     1.10300
C201        C  0.00399339  0.91879551  0.57846842     1.10100
O202        O  0.90697639  0.95206225  0.53733236    -0.79500
O203        O  0.06743578  0.09055723  0.96579415    -0.79500
O204        O  0.90968228  0.01745926  0.94411588    -0.79500
O205        O  0.98166807  0.07400471  0.58910395    -0.79400
O206        O  0.01638260  0.10284919  0.53450249    -0.79500
O207        O  0.91352161  0.93190590  0.96277823    -0.79500
O208        O  0.91189962  0.04020221  0.53699861    -0.79400
O209        O  0.98360371  0.09276821  0.94779667    -0.79500
Co210      Co  0.97025885  0.92424254  0.00355312     1.51500
Co211      Co  0.06027123  0.03605104  0.50862612     1.51700
Co212      Co  0.98932317  0.01447188  0.93777981     1.51600
Co213      Co  0.98974352  0.02700518  0.54723736     1.51500
O214        O  0.99784621  0.99646595  0.99452905    -1.40800
C215        C  0.88507880  0.00020880  0.54252366     1.10200
C216        C  0.02691822  0.11501727  0.94910593     1.10300
C217        C  0.88788679  0.97388533  0.94779543     1.10200
C218        C  0.99628290  0.11238419  0.56831804     1.10200
C219        C  0.99142277  0.55456819  0.72609858     0.03000
C220        C  0.98708635  0.56134222  0.76604245     0.02900
C221        C  0.98229178  0.51630878  0.79014385    -0.17600
C222        C  0.98100013  0.46470992  0.77553906     0.03000
C223        C  0.98316345  0.45776845  0.73550760     0.02900
C224        C  0.98825512  0.50316525  0.71139609    -0.17600
H225        H  0.98829584  0.49921402  0.68072896     0.05000
H226        H  0.97828170  0.52163328  0.82070554     0.05000
C227        C  0.55720384  0.97765433  0.73084353     0.03000
C228        C  0.55250756  0.98244000  0.77091721     0.02900
C229        C  0.50122154  0.97976481  0.78869317    -0.17600
C230        C  0.45468240  0.97407557  0.76712513     0.03000
C231        C  0.45985249  0.97158025  0.72695292     0.02900
C232        C  0.51101744  0.97148779  0.70966966    -0.17600
H233        H  0.51468762  0.96696829  0.67903258     0.05000
H234        H  0.49752651  0.98226786  0.81936590     0.05000
C235        C  0.24739016  0.02788260  0.61651295     0.19400
C236        C  0.30191018  0.01372243  0.60640415    -0.18700
C237        C  0.34132784  0.00521504  0.63447469    -0.11000
C238        C  0.32698931  0.01164176  0.67326432     0.21600
C239        C  0.27268428  0.02749608  0.68327615    -0.20300
C240        C  0.23308170  0.03504439  0.65522162    -0.11200
C241        C  0.36847714  0.00564911  0.70339948    -0.15300
C242        C  0.41341719  0.97048556  0.70097735    -0.29200
C243        C  0.20649836  0.03663761  0.58611302    -0.03500
C244        C  0.15615999  0.02204960  0.59081987    -0.40000
H245        H  0.31394108  0.00888109  0.57671825     0.12800
H246        H  0.38315567  0.99505234  0.62562251     0.12400
H247        H  0.26090885  0.03381687  0.71286926     0.11800
H248        H  0.19150970  0.04753460  0.66374818     0.12100
H249        H  0.36246246  0.03202878  0.72764388     0.14800
H250        H  0.41951732  0.94461335  0.67647057     0.13600
H251        H  0.21885432  0.05315037  0.55872991     0.11300
H252        H  0.14495632  0.00207750  0.61724308     0.13300
C253        C  0.22765823  0.98006893  0.87174286     0.19400
C254        C  0.23420313  0.97504558  0.83212724    -0.18700
C255        C  0.28511721  0.97731781  0.81459600    -0.11000
C256        C  0.33054073  0.98508809  0.83647778     0.21600
C257        C  0.32382635  0.99070114  0.87599135    -0.20300
C258        C  0.27308211  0.98802198  0.89352838    -0.11200
C259        C  0.38470006  0.99055118  0.81889559    -0.15300
C260        C  0.40163923  0.96690839  0.78612725    -0.29200
C261        C  0.17230257  0.98259137  0.88900190    -0.03500
C262        C  0.16294635  0.97098352  0.92604274    -0.40000
H263        H  0.19962710  0.97018438  0.81462632     0.12800
H264        H  0.28823936  0.97482135  0.78386518     0.12400
H265        H  0.35794447  0.99767973  0.89334099     0.11800
H266        H  0.26934257  0.99429476  0.92390912     0.12100
H267        H  0.41121323  0.01478843  0.83361419     0.14800
H268        H  0.37514362  0.94216005  0.77188696     0.13600
H269        H  0.13841727  0.99694693  0.87094328     0.11300
H270        H  0.19603669  0.95432133  0.94400552     0.13300
C271        C  0.66696971  0.99207038  0.65257318     0.19400
C272        C  0.67327184  0.02846262  0.62204010    -0.18700
C273        C  0.71901489  0.02204611  0.59797040    -0.11000
C274        C  0.75928932  0.97870369  0.60397189     0.21600
C275        C  0.75268292  0.94202161  0.63423808    -0.20300
C276        C  0.70712562  0.94854857  0.65835515    -0.11200
C277        C  0.80858273  0.96981239  0.57938101    -0.15300
C278        C  0.83038915  0.00950664  0.55983136    -0.29200
C279        C  0.61613519  0.99832669  0.67575288    -0.03500
C280        C  0.61063404  0.97561705  0.71065388    -0.40000
H281        H  0.64240923  0.06174860  0.61657308     0.12800
H282        H  0.72199115  0.05033650  0.57435854     0.12400
H283        H  0.78294025  0.90806302  0.63925014     0.11800
H284        H  0.70299997  0.91851119  0.68068269     0.12100
H285        H  0.83073278  0.92977828  0.58042211     0.14800
H286        H  0.81136657  0.05070158  0.56061681     0.13600
H287        H  0.58159288  0.02274706  0.66345595     0.11300
H288        H  0.64564954  0.95509337  0.72491061     0.13300
C289        C  0.75450482  0.00102230  0.89128452     0.19400
C290        C  0.73905600  0.03467424  0.85981762    -0.18700
C291        C  0.69184530  0.02835577  0.83990909    -0.11000
C292        C  0.65879937  0.98784967  0.85096764     0.21600
C293        C  0.67310700  0.95562810  0.88334631    -0.20300
C294        C  0.72025541  0.96204638  0.90331510    -0.11200
C295        C  0.60907215  0.97822339  0.82989018    -0.15300
C296        C  0.60061522  0.99385305  0.79321965    -0.29200
C297        C  0.80649940  0.00786672  0.91046824    -0.03500
C298        C  0.83340466  0.96928961  0.93253031    -0.40000
H299        H  0.76399958  0.06568563  0.85026707     0.12800
H300        H  0.68144051  0.05568431  0.81616108     0.12400
H301        H  0.64798234  0.92485897  0.89302921     0.11800
H302        H  0.72923357  0.93652866  0.92822916     0.12100
H303        H  0.58032560  0.95443231  0.84437037     0.14800
H304        H  0.63142329  0.01396980  0.77797401     0.13600
H305        H  0.82513859  0.04464432  0.90410103     0.11300
H306        H  0.81717675  0.93105040  0.93762227     0.13300
C307        C  0.97898377  0.23548158  0.63342877     0.19400
C308        C  0.94625955  0.25169277  0.66504606    -0.18700
C309        C  0.95024362  0.30143493  0.68180102    -0.11000
C310        C  0.98805650  0.33572884  0.66764557     0.21600
C311        C  0.02036512  0.31955900  0.63578005    -0.20300
C312        C  0.01616367  0.27004723  0.61895147    -0.11200
C313        C  0.99535273  0.38857475  0.68472023    -0.15300
C314        C  0.97495380  0.40465720  0.71900553    -0.29200
C315        C  0.97609037  0.18097818  0.61785643    -0.03500
C316        C  0.99126747  0.16818391  0.58189120    -0.40000
H317        H  0.91743987  0.22574792  0.67682024     0.12800
H318        H  0.92339897  0.31246082  0.70561814     0.12400
H319        H  0.04980499  0.34497372  0.62419062     0.11800
H320        H  0.04337968  0.25845176  0.59539350     0.12100
H321        H  0.02085540  0.41434312  0.66882474     0.14800
H322        H  0.95255318  0.37779423  0.73629352     0.13600
H323        H  0.96201837  0.15016336  0.63691213     0.11300
H324        H  0.00321852  0.19896922  0.56201439     0.13300
C325        C  0.99705582  0.24192721  0.88453430     0.19400
C326        C  0.95066062  0.27690265  0.87560116    -0.18700
C327        C  0.95385960  0.32039497  0.84998204    -0.11000
C328        C  0.00369219  0.32961153  0.83244366     0.21600
C329        C  0.04999449  0.29435664  0.84107145    -0.20300
C330        C  0.04689860  0.25112581  0.86695353    -0.11200
C331        C  0.00826354  0.37396501  0.80381855    -0.15300
C332        C  0.97456763  0.41994971  0.80341937    -0.29200
C333        C  0.99105510  0.19376998  0.90952617    -0.03500
C334        C  0.03214490  0.16711406  0.92910878    -0.40000
H335        H  0.91161564  0.27014701  0.88816018     0.12800
H336        H  0.91693866  0.34565431  0.84316116     0.12400
H337        H  0.08868693  0.30009532  0.82753325     0.11800
H338        H  0.08322687  0.22406212  0.87201627     0.12100
H339        H  0.04175805  0.36965134  0.78325386     0.14800
H340        H  0.94454647  0.42741794  0.82615213     0.13600
H341        H  0.95128783  0.17918957  0.91128800     0.11300
H342        H  0.07149167  0.18240478  0.92925339     0.13300
C343        C  0.02755838  0.77916682  0.62870263     0.19400
C344        C  0.02902573  0.72714524  0.61396664    -0.18700
C345        C  0.02850164  0.68199612  0.63828663    -0.11000
C346        C  0.02742183  0.68792927  0.67796621     0.21600
C347        C  0.02792326  0.73960122  0.69282123    -0.20300
C348        C  0.02736144  0.78500003  0.66848094    -0.11200
C349        C  0.02662139  0.64085496  0.70444223    -0.15300
C350        C  0.99638545  0.60017391  0.69834964    -0.29200
C351        C  0.02725820  0.82556010  0.60131386    -0.03500
C352        C  0.00931512  0.87712764  0.60931720    -0.40000
H353        H  0.02997819  0.72142830  0.58343130     0.12800
H354        H  0.02967898  0.64247000  0.62605143     0.12400
H355        H  0.02810872  0.74491458  0.72334795     0.11800
H356        H  0.02767792  0.82419174  0.68090595     0.12100
H357        H  0.04949955  0.64136324  0.73044167     0.14800
H358        H  0.97481246  0.59960155  0.67172886     0.13600
H359        H  0.03918049  0.81586283  0.57208125     0.11300
H360        H  0.99444201  0.88808116  0.63765799     0.13300
C361        C  0.01740807  0.78347390  0.86096540     0.19400
C362        C  0.99477206  0.77921062  0.82495847    -0.18700
C363        C  0.99322907  0.72888813  0.80856117    -0.11000
C364        C  0.01428336  0.68134178  0.82796875     0.21600
C365        C  0.03819129  0.68567908  0.86347831    -0.20300
C366        C  0.03947338  0.73589678  0.87997325    -0.11200
C367        C  0.01331910  0.62663585  0.81220353    -0.15300
C368        C  0.98268942  0.61563322  0.78276603    -0.29200
C369        C  0.01252690  0.83734644  0.87895375    -0.03500
C370        C  0.03719988  0.84742125  0.91140389    -0.40000
H371        H  0.97738672  0.81498550  0.80964801     0.12800
H372        H  0.97548024  0.72789684  0.78077072     0.12400
H373        H  0.05496250  0.64983609  0.87899887     0.11800
H374        H  0.05629626  0.73641152  0.90808892     0.12100
H375        H  0.03955816  0.59379526  0.82521155     0.14800
H376        H  0.95617112  0.64712821  0.76881203     0.13600
H377        H  0.98417358  0.86888784  0.86648812     0.11300
H378        H  0.06592921  0.81717494  0.92458407     0.13300
loop_ 
_geom_bond_atom_site_label_1 
_geom_bond_atom_site_label_2 
_geom_bond_distance 
_geom_bond_site_symmetry_2 
_ccdc_geom_bond_type 
O1            C9   1.259       .  A
O1          Co21   1.961   1_455  S
O2           C10   1.267       .  A
O2          Co22   1.902       .  S
O3           C11   1.280   1_545  A
O3          Co23   2.029   1_455  S
O4           C12   1.265   1_655  A
O4          Co24   2.020   1_565  S
O5           C11   1.267       .  A
O5         Co211   1.964   1_565  S
O6           C12   1.256       .  A
O6         Co210   1.966   1_455  S
O7           C10   1.292       .  A
O7          Co24   2.100   1_455  S
O8            C9   1.273   1_655  A
O8          Co23   2.027   1_565  S
C9          C181   1.473       .  S
C10          C55   1.474       .  S
C11          C73   1.474       .  S
C12         C163   1.480       .  S
O13          C26   1.280   1_565  A
O13        Co210   2.028       .  S
O14          C27   1.264       .  A
O14        Co211   2.004       .  S
O15          C28   1.268   1_545  A
O15         Co23   1.977       .  S
O16          C29   1.267       .  A
O16         Co24   1.896       .  S
O17          C29   1.295   1_455  A
O17         Co22   2.106       .  S
O18          C28   1.273       .  A
O18         Co21   2.018       .  S
O19          C26   1.266       .  A
O19         Co24   1.961       .  S
O20          C27   1.263   1_655  A
O20         Co23   1.982       .  S
Co21        O195   1.966   1_655  S
Co21        O202   2.028       .  S
Co21         O25   2.009       .  S
Co22        O194   1.964   1_544  S
Co22        O203   2.005   1_554  S
Co22        O214   1.994   1_444  S
Co23         O25   2.039   1_545  S
Co24        O214   2.008   1_544  S
O25        Co211   1.992   1_665  S
O25        Co213   2.008   1_565  S
C26          C89   1.472       .  S
C27         C145   1.477       .  S
C28         C109   1.480       .  S
C29         C127   1.475       .  S
C30         C161   1.492       .  S
C30          C31   1.416       .  A
C30          C35   1.405       .  A
C31         C179   1.482       .  S
C31          C32   1.403       .  A
C32          C33   1.401       .  A
C32          H37   1.085       .  S
C33         C143   1.484       .  S
C33          C34   1.417       .  A
C34         C125   1.493       .  S
C34          C35   1.410       .  A
C35          H36   1.083       .  S
C38          C91   1.485       .  S
C38          C39   1.414       .  A
C38          C43   1.401       .  A
C39         C107   1.496       .  S
C39          C40   1.412       .  A
C40          C41   1.415       .  A
C40          H45   1.080       .  S
C41          C71   1.489       .  S
C41          C42   1.415       .  A
C42          C53   1.486       .  S
C42          C43   1.395       .  A
C43          H44   1.084       .  S
C46          C54   1.483       .  S
C46          C47   1.401       .  A
C46          C51   1.408       .  A
C47          C48   1.398       .  A
C47          H56   1.083       .  S
C48          C49   1.408       .  A
C48          H57   1.082       .  S
C49          C52   1.483       .  S
C49          C50   1.402       .  A
C50          C51   1.399       .  A
C50          H58   1.083       .  S
C51          H59   1.083       .  S
C52          H60   1.086       .  S
C52          C53   1.345   1_545  D
C53          H61   1.087       .  S
C54          H62   1.087       .  S
C54          C55   1.343       .  D
C55          H63   1.086   1_545  S
C64          C72   1.485       .  S
C64          C65   1.403       .  A
C64          C69   1.408       .  A
C65          C66   1.399       .  A
C65          H74   1.083       .  S
C66          C67   1.408       .  A
C66          H75   1.082       .  S
C67          C70   1.485       .  S
C67          C68   1.401       .  A
C68          C69   1.397       .  A
C68          H76   1.084       .  S
C69          H77   1.081       .  S
C70          H78   1.085   1_565  S
C70          C71   1.345       .  D
C71          H79   1.085       .  S
C72          H80   1.087       .  S
C72          C73   1.345       .  D
C73          H81   1.085       .  S
C82          C90   1.481       .  S
C82          C83   1.403   1_565  A
C82          C87   1.406       .  A
C83          C84   1.398       .  A
C83          H92   1.084       .  S
C84          C85   1.407   1_545  A
C84          H93   1.081       .  S
C85          C88   1.482       .  S
C85          C86   1.402       .  A
C86          C87   1.395       .  A
C86          H94   1.083       .  S
C87          H95   1.081       .  S
C88          H96   1.087       .  S
C88          C89   1.344   1_565  D
C89          H97   1.085       .  S
C90          H98   1.087   1_565  S
C90          C91   1.346       .  D
C91          H99   1.085       .  S
C100        C108   1.495       .  S
C100        C101   1.404       .  A
C100        C105   1.409   1_545  A
C101        C102   1.401       .  A
C101        H110   1.084       .  S
C102        C103   1.410   1_545  A
C102        H111   1.081       .  S
C103        C106   1.495       .  S
C103        C104   1.404       .  A
C104        C105   1.401       .  A
C104        H112   1.083       .  S
C105        H113   1.081       .  S
C106        H114   1.086       .  S
C106        C107   1.348       .  D
C107        H115   1.083   1_565  S
C108        H116   1.087       .  S
C108        C109   1.348   1_545  D
C109        H117   1.084       .  S
C118        C126   1.489       .  S
C118        C119   1.403       .  A
C118        C123   1.407   1_655  A
C119        C120   1.400       .  A
C119        H128   1.083       .  S
C120        C121   1.410       .  A
C120        H129   1.079       .  S
C121        C124   1.493       .  S
C121        C122   1.405   1_655  A
C122        C123   1.398       .  A
C122        H130   1.083       .  S
C123        H131   1.081       .  S
C124        H132   1.086   1_655  S
C124        C125   1.349       .  D
C125        H133   1.081       .  S
C126        H134   1.087       .  S
C126        C127   1.346       .  D
C127        H135   1.084   1_655  S
C136        C144   1.487       .  S
C136        C137   1.404       .  A
C136        C141   1.408   1_655  A
C137        C138   1.399       .  A
C137        H146   1.083       .  S
C138        C139   1.407   1_655  A
C138        H147   1.082       .  S
C139        C142   1.486       .  S
C139        C140   1.403       .  A
C140        C141   1.399       .  A
C140        H148   1.083       .  S
C141        H149   1.081       .  S
C142        H150   1.087       .  S
C142        C143   1.345   1_455  D
C143        H151   1.086       .  S
C144        H152   1.087       .  S
C144        C145   1.346   1_655  D
C145        H153   1.085       .  S
C154        C162   1.486       .  S
C154        C155   1.406       .  A
C154        C159   1.407       .  A
C155        C156   1.397       .  A
C155        H164   1.083       .  S
C156        C157   1.403       .  A
C156        H165   1.083       .  S
C157        C160   1.481       .  S
C157        C158   1.404       .  A
C158        C159   1.401       .  A
C158        H166   1.083       .  S
C159        H167   1.081       .  S
C160        H168   1.085       .  S
C160        C161   1.348   1_455  D
C161        H169   1.086       .  S
C162        H170   1.087       .  S
C162        C163   1.350       .  D
C163        H171   1.084   1_455  S
C172        C180   1.493       .  S
C172        C173   1.404   1_455  A
C172        C177   1.410       .  A
C173        C174   1.399       .  A
C173        H182   1.083       .  S
C174        C175   1.409   1_655  A
C174        H183   1.079       .  S
C175        C178   1.490       .  S
C175        C176   1.402       .  A
C176        C177   1.397       .  A
C176        H184   1.084       .  S
C177        H185   1.079       .  S
C178        H186   1.087       .  S
C178        C179   1.345   1_455  D
C179        H187   1.082       .  S
C180        H188   1.087   1_455  S
C180        C181   1.346       .  D
C181        H189   1.081       .  S
O190        C198   1.258       .  A
O190       Co210   1.961   1_456  S
O191        C199   1.266       .  A
O191       Co211   1.900       .  S
O192        C200   1.280   1_545  A
O192       Co212   2.028   1_455  S
O193        C201   1.265   1_655  A
O193       Co213   2.020   1_565  S
O194        C200   1.266       .  A
O195        C201   1.257       .  A
O196        C199   1.292       .  A
O196       Co213   2.103   1_455  S
O197        C198   1.273   1_655  A
O197       Co212   2.028   1_565  S
C198        C370   1.472       .  S
C199        C244   1.474       .  S
C200        C262   1.474       .  S
C201        C352   1.479       .  S
O202        C215   1.280   1_565  A
O203        C216   1.265       .  A
O204        C217   1.267   1_545  A
O204       Co212   1.977       .  S
O205        C218   1.268       .  A
O205       Co213   1.896       .  S
O206        C218   1.295   1_455  A
O206       Co211   2.106       .  S
O207        C217   1.273       .  A
O207       Co210   2.018   1_556  S
O208        C215   1.266       .  A
O208       Co213   1.962       .  S
O209        C216   1.263   1_655  A
O209       Co212   1.983       .  S
Co210       O214   2.010   1_554  S
Co212       O214   2.040   1_545  S
C215        C278   1.472       .  S
C216        C334   1.478       .  S
C217        C298   1.480       .  S
C218        C316   1.474       .  S
C219        C350   1.492       .  S
C219        C220   1.416       .  A
C219        C224   1.405       .  A
C220        C368   1.482       .  S
C220        C221   1.403       .  A
C221        C222   1.401       .  A
C221        H226   1.085       .  S
C222        C332   1.485       .  S
C222        C223   1.418       .  A
C223        C314   1.494       .  S
C223        C224   1.411       .  A
C224        H225   1.083       .  S
C227        C280   1.486       .  S
C227        C228   1.415       .  A
C227        C232   1.402       .  A
C228        C296   1.496       .  S
C228        C229   1.412       .  A
C229        C230   1.414       .  A
C229        H234   1.081       .  S
C230        C260   1.488       .  S
C230        C231   1.414       .  A
C231        C242   1.486       .  S
C231        C232   1.395       .  A
C232        H233   1.084       .  S
C235        C243   1.482       .  S
C235        C236   1.401       .  A
C235        C240   1.407       .  A
C236        C237   1.398       .  A
C236        H245   1.083       .  S
C237        C238   1.408       .  A
C237        H246   1.082   1_545  S
C238        C241   1.484       .  S
C238        C239   1.403       .  A
C239        C240   1.399       .  A
C239        H247   1.083       .  S
C240        H248   1.083       .  S
C241        H249   1.086       .  S
C241        C242   1.345   1_545  D
C242        H250   1.086       .  S
C243        H251   1.087       .  S
C243        C244   1.343       .  D
C244        H252   1.086       .  S
C253        C261   1.485       .  S
C253        C254   1.403       .  A
C253        C258   1.408       .  A
C254        C255   1.399       .  A
C254        H263   1.083       .  S
C255        C256   1.409       .  A
C255        H264   1.082       .  S
C256        C259   1.484       .  S
C256        C257   1.401       .  A
C257        C258   1.397       .  A
C257        H265   1.084       .  S
C258        H266   1.082       .  S
C259        H267   1.086   1_565  S
C259        C260   1.344       .  D
C260        H268   1.085       .  S
C261        H269   1.087       .  S
C261        C262   1.345       .  D
C262        H270   1.085       .  S
C271        C279   1.482       .  S
C271        C272   1.404   1_565  A
C271        C276   1.406       .  A
C272        C273   1.398       .  A
C272        H281   1.084       .  S
C273        C274   1.406   1_545  A
C273        H282   1.081       .  S
C274        C277   1.482       .  S
C274        C275   1.403       .  A
C275        C276   1.395       .  A
C275        H283   1.083       .  S
C276        H284   1.081       .  S
C277        H285   1.087       .  S
C277        C278   1.345   1_565  D
C278        H286   1.085       .  S
C279        H287   1.087   1_565  S
C279        C280   1.346       .  D
C280        H288   1.084       .  S
C289        C297   1.494       .  S
C289        C290   1.404       .  A
C289        C294   1.409   1_545  A
C290        C291   1.400       .  A
C290        H299   1.084       .  S
C291        C292   1.410   1_545  A
C291        H300   1.081       .  S
C292        C295   1.495       .  S
C292        C293   1.404       .  A
C293        C294   1.401       .  A
C293        H301   1.083       .  S
C294        H302   1.081       .  S
C295        H303   1.086       .  S
C295        C296   1.349       .  D
C296        H304   1.083   1_565  S
C297        H305   1.087       .  S
C297        C298   1.348   1_545  D
C298        H306   1.084       .  S
C307        C315   1.487       .  S
C307        C308   1.403       .  A
C307        C312   1.407   1_655  A
C308        C309   1.400       .  A
C308        H317   1.083       .  S
C309        C310   1.410       .  A
C309        H318   1.080       .  S
C310        C313   1.491       .  S
C310        C311   1.404   1_655  A
C311        C312   1.397       .  A
C311        H319   1.083       .  S
C312        H320   1.081       .  S
C313        H321   1.086   1_655  S
C313        C314   1.349       .  D
C314        H322   1.082       .  S
C315        H323   1.087       .  S
C315        C316   1.345       .  D
C316        H324   1.085   1_655  S
C325        C333   1.488       .  S
C325        C326   1.403       .  A
C325        C330   1.408   1_655  A
C326        C327   1.399       .  A
C326        H335   1.083       .  S
C327        C328   1.407   1_655  A
C327        H336   1.082       .  S
C328        C331   1.487       .  S
C328        C329   1.403       .  A
C329        C330   1.400       .  A
C329        H337   1.083       .  S
C330        H338   1.081       .  S
C331        H339   1.087       .  S
C331        C332   1.345   1_455  D
C332        H340   1.085       .  S
C333        H341   1.087       .  S
C333        C334   1.346   1_655  D
C334        H342   1.085       .  S
C343        C351   1.485       .  S
C343        C344   1.406       .  A
C343        C348   1.406       .  A
C344        C345   1.397       .  A
C344        H353   1.083       .  S
C345        C346   1.403       .  A
C345        H354   1.083       .  S
C346        C349   1.480       .  S
C346        C347   1.404       .  A
C347        C348   1.400       .  A
C347        H355   1.082       .  S
C348        H356   1.081       .  S
C349        H357   1.085       .  S
C349        C350   1.348   1_455  D
C350        H358   1.087       .  S
C351        H359   1.087       .  S
C351        C352   1.350       .  D
C352        H360   1.084   1_455  S
C361        C369   1.491       .  S
C361        C362   1.403   1_455  A
C361        C366   1.410       .  A
C362        C363   1.398       .  A
C362        H371   1.083       .  S
C363        C364   1.409   1_655  A
C363        H372   1.080       .  S
C364        C367   1.488       .  S
C364        C365   1.402       .  A
C365        C366   1.397       .  A
C365        H373   1.084       .  S
C366        H374   1.079       .  S
C367        H375   1.087       .  S
C367        C368   1.345   1_455  D
C368        H376   1.083       .  S
C369        H377   1.087   1_455  S
C369        C370   1.345       .  D
C370        H378   1.082       .  S
