geometry optimzed in LAMMPS
_audit_creation_date              2020-12-01 
_audit_creation_method            'lammps2cif' 
_symmetry_space_group_name_H-M    'P1' 
_symmetry_Int_Tables_number       1 
_symmetry_cell_setting            triclinic 
loop_ 
_symmetry_equiv_pos_as_xyz 
  x,y,z 
_cell_length_a                    26.88594433 
_cell_length_b                    22.66301522253227 
_cell_length_c                    27.971650857150024 
_cell_angle_alpha                 79.3411254933619 
_cell_angle_beta                  110.1135480356467 
_cell_angle_gamma                 96.2665389940793 
loop_ 
_atom_site_label 
_atom_site_type_symbol 
_atom_site_fract_x 
_atom_site_fract_y 
_atom_site_fract_z 
_atom_site_charge 
O1          O  0.92579050  0.01061097  0.36248228    -0.79500
O2          O  0.98144539  0.96894535  0.60717855    -0.64200
O3          O  0.96359032  0.02937377  0.46640020    -1.10800
C4          C  0.12802308  0.96046239  0.49830957     1.07400
O5          O  0.06929226  0.98139293  0.64088143    -0.77400
O6          O  0.09188034  0.06430799  0.56551220    -0.65000
Ni7        Ni  0.89640152  0.01031588  0.41667273     1.34900
C8          C  0.08569029  0.09103050  0.51989689     0.86100
O9          O  0.91354843  0.03846802  0.53489340    -0.78000
O10         O  0.85685672  0.01027488  0.46275686    -0.88200
C11         C  0.02347098  0.97162701  0.64522425     0.85700
O12         O  0.90431346  0.92589132  0.43749391    -0.66400
O13         O  0.13849756  0.97789174  0.54152122    -0.85700
C14         C  0.91039989  0.89856339  0.48292970     0.86500
C15         C  0.86722458  0.02735763  0.50607778     1.08100
H16         H  0.02588065  0.91724121  0.54178546     0.39900
O17         O  0.03183018  0.96042487  0.53748898    -1.08400
O18         O  0.06605030  0.06474879  0.48039052    -0.65000
Ni19       Ni  0.02319970  0.99072765  0.46702643     1.26300
O20         O  0.92950439  0.92443746  0.52276329    -0.65300
O21         O  0.08161330  0.95057131  0.46899182    -0.77600
C22         C  0.97179256  0.01898229  0.35845690     0.85900
O23         O  0.01383067  0.01992583  0.39667505    -0.64700
Ni24       Ni  0.09888418  0.97982639  0.58716139     1.27400
Ni25       Ni  0.97208238  0.99863045  0.53680733     1.26100
H26         H  0.96974392  0.07252303  0.46228551     0.40400
O27         O  0.48476157  0.95303860  0.38300298    -0.79500
O28         O  0.44964921  0.96248359  0.58958889    -0.64200
O29         O  0.46539470  0.00861438  0.45656036    -1.10800
C30         C  0.64728017  0.99472207  0.55471083     1.07400
O31         O  0.51031933  0.03239349  0.61960935    -0.77400
O32         O  0.57284009  0.09616226  0.56827797    -0.65000
Ni33       Ni  0.42424246  0.96941350  0.39948508     1.34900
C34         C  0.56658943  0.11770661  0.52152858     0.86100
O35         O  0.38108077  0.99204718  0.49414127    -0.78000
O36         O  0.36012414  0.98316439  0.41018905    -0.88200
C37         C  0.47420071  0.99346828  0.62489451     0.85700
O38         O  0.42293223  0.88895204  0.43503554    -0.66400
O39         O  0.63522977  0.00154945  0.59348776    -0.85700
C40         C  0.42966920  0.86737972  0.48188465     0.86500
C41         C  0.34819588  0.98938115  0.44919173     1.08100
H42         H  0.53760385  0.93459560  0.55724439     0.39900
O43         O  0.53023102  0.97670841  0.54672804    -1.08400
O44         O  0.55195167  0.08620408  0.48534587    -0.65000
Ni45       Ni  0.54020671  0.00110578  0.48154886     1.26300
O46         O  0.44429178  0.89892258  0.51800493    -0.65300
O47         O  0.61458993  0.99239015  0.50957937    -0.77600
C48         C  0.52193036  0.99091352  0.37863710     0.85900
O49         O  0.54627157  0.02201420  0.41391703    -0.64700
Ni50       Ni  0.57111554  0.01581814  0.60381537     1.27400
Ni51       Ni  0.45548714  0.98392483  0.52185243     1.26100
H52         H  0.45812352  0.05076041  0.44612638     0.40400
O53         O  0.20575291  0.47923169  0.36135937    -0.79500
O54         O  0.20551875  0.46742229  0.59180918    -0.64200
O55         O  0.21815666  0.51144499  0.45776105    -1.10800
C56         C  0.38989964  0.45295372  0.53316046     1.07400
O57         O  0.28857930  0.49010109  0.63891027    -0.77400
O58         O  0.32752696  0.56443809  0.56844946    -0.65000
Ni59       Ni  0.16098613  0.48359377  0.40163705     1.34900
C60         C  0.33180229  0.58483077  0.52443214     0.86100
O61         O  0.14613741  0.52598278  0.50413124    -0.78000
O62         O  0.10694769  0.48720778  0.43195329    -0.88200
C63         C  0.24014947  0.47655439  0.63411807     0.85700
O64         O  0.17103292  0.40131976  0.43219960    -0.66400
O65         O  0.38810318  0.47491623  0.57107203    -0.85700
C66         C  0.16912745  0.37917361  0.47676034     0.86500
C67         C  0.10531093  0.51026163  0.46940114     1.08100
H68         H  0.27394398  0.41067066  0.55203345     0.39900
O69         O  0.27774417  0.45389162  0.54396399    -1.08400
O70         O  0.32123806  0.55279160  0.48873871    -0.65000
Ni71       Ni  0.28443687  0.47488034  0.47706334     1.26300
O72         O  0.17648428  0.41076430  0.51217675    -0.65300
O73         O  0.34927728  0.43696824  0.49820333    -0.77600
C74         C  0.25472091  0.48841923  0.36681683     0.85900
O75         O  0.29007655  0.49432284  0.40962748    -0.64700
Ni76       Ni  0.33414690  0.48206574  0.60017100     1.27400
Ni77       Ni  0.21129199  0.48916123  0.52464120     1.26100
H78         H  0.22247214  0.55468404  0.45018673     0.40400
O79         O  0.70241658  0.49475108  0.36247722    -0.79500
O80         O  0.70299271  0.49564677  0.59162452    -0.64200
O81         O  0.71328665  0.53314363  0.45642848    -1.10800
C82         C  0.88748049  0.48336077  0.53017921     1.07400
O83         O  0.78743019  0.51229786  0.63894609    -0.77400
O84         O  0.81950619  0.59057469  0.56619427    -0.65000
Ni85       Ni  0.65718126  0.50172052  0.40180153     1.34900
C86         C  0.82151620  0.61185268  0.52150477     0.86100
O87         O  0.64178211  0.54943966  0.50232983    -0.78000
O88         O  0.60347605  0.50702359  0.43179463    -0.88200
C89         C  0.73869919  0.50206267  0.63412089     0.85700
O90         O  0.66739196  0.42039947  0.43549757    -0.66400
O91         O  0.88550927  0.50696845  0.56718091    -0.85700
C92         C  0.66355759  0.40089185  0.47979922     0.86500
C93         C  0.60138909  0.53012940  0.46903223     1.08100
H94         H  0.77154074  0.43566918  0.55171301     0.39900
O95         O  0.77483884  0.47894144  0.54321576    -1.08400
O96         O  0.81387362  0.57951450  0.48649599    -0.65000
Ni97       Ni  0.78067091  0.49987455  0.47593085     1.26300
O98         O  0.67284825  0.43423792  0.51440174    -0.65300
O99         O  0.84685762  0.46511968  0.49660074    -0.77600
C100        C  0.75063638  0.50891380  0.36669460     0.85900
O101        O  0.78534086  0.51993319  0.40835907    -0.64700
Ni102      Ni  0.83179368  0.50908637  0.59813436     1.27400
Ni103      Ni  0.70765853  0.51360176  0.52378685     1.26100
H104        H  0.71594515  0.57632814  0.44721599     0.40400
O105        O  0.95025811  0.00738481  0.86644481    -0.79500
O106        O  0.97440929  0.02071643  0.09553953    -0.64200
O107        O  0.99793625  0.03820888  0.96707894    -1.10800
C108        C  0.06247864  0.84331854  0.02879911     1.07400
O109        O  0.05154468  0.98050597  0.14131572    -0.77400
O110        O  0.11839909  0.96705842  0.08899219    -0.65000
Ni111      Ni  0.94270757  0.06731918  0.90434822     1.34900
C112        C  0.12773480  0.98044015  0.04664480     0.86100
O113        O  0.96647056  0.11225499  0.02000278    -0.78000
O114        O  0.92935727  0.13180977  0.93379067    -0.88200
C115        C  0.01001161  0.00520916  0.13811638     0.85700
O116        O  0.88367300  0.02171890  0.91852785    -0.66400
O117        O  0.07342314  0.85645500  0.07376960    -0.85700
C118        C  0.87437736  0.00776970  0.96085578     0.86500
C119        C  0.93986226  0.14459188  0.97877454     1.08100
H120        H  0.97331975  0.92297289  0.03880839     0.39900
O121        O  0.00426395  0.94966107  0.04056151    -1.08400
O122        O  0.09203229  0.97968590  0.00279581    -0.65000
Ni123      Ni  0.01717137  0.95697126  0.97674161     1.26300
O124        O  0.91010052  0.00796916  0.00474785    -0.65300
O125        O  0.03549419  0.87547430  0.98761738    -0.77600
C126        C  0.99171607  0.98285085  0.86930870     0.85900
O127        O  0.02742759  0.96707580  0.91179936    -0.64700
Ni128      Ni  0.05964335  0.92082723  0.10328248     1.27400
Ni129      Ni  0.98490687  0.03084571  0.03082477     1.26100
H130        H  0.02893779  0.06482994  0.96894284     0.40400
O131        O  0.57627839  0.97156013  0.13898424    -0.79500
O132        O  0.50228058  0.96962151  0.89780637    -0.64200
O133        O  0.54365132  0.01654948  0.03105501    -1.10800
C134        C  0.36268292  0.97800382  0.01632994     1.07400
O135        O  0.42455140  0.01257517  0.86623663    -0.77400
O136        O  0.41092311  0.08314148  0.93038539    -0.65000
Ni137      Ni  0.60671375  0.98501594  0.08410464     1.34900
C138        C  0.42677008  0.10405647  0.97253181     0.86100
O139        O  0.59242771  0.01660300  0.95606654    -0.78000
O140        O  0.64702103  0.99605865  0.03752471    -0.88200
C141        C  0.46232349  0.98881725  0.86029142     0.85700
O142        O  0.59170794  0.90272531  0.07474995    -0.66400
O143        O  0.35431746  0.99149427  0.96808244    -0.85700
C144        C  0.57451766  0.88160055  0.03269600     0.86500
C145        C  0.63849204  0.00880897  0.98923253     1.08100
H146        H  0.45258867  0.92574629  0.97876100     0.39900
O147        O  0.45732090  0.96904898  0.97437565    -1.08400
O148        O  0.45213603  0.07394165  0.01579118    -0.65000
Ni149      Ni  0.47639247  0.99297625  0.04089139     1.26300
O150        O  0.54849489  0.91159533  0.98970463    -0.65300
O151        O  0.40860368  0.96880296  0.04940916    -0.77600
C152        C  0.53871569  0.99532335  0.14526072     0.85900
O153        O  0.49899987  0.01546473  0.10787800    -0.64700
Ni154      Ni  0.39445282  0.00089875  0.92135521     1.27400
Ni155      Ni  0.52463072  0.99253817  0.96458607     1.26100
H156        H  0.54825238  0.05986373  0.02659453     0.40400
O157        O  0.16910286  0.49150644  0.87023597    -0.79500
O158        O  0.24064173  0.49047712  0.10532821    -0.64200
O159        O  0.23558235  0.52374014  0.96564822    -1.10800
C160        C  0.31464425  0.33585316  0.00400236     1.07400
O161        O  0.32374563  0.46186377  0.13298152    -0.77400
O162        O  0.37601522  0.45719256  0.06324353    -0.65000
Ni163      Ni  0.17327015  0.55335337  0.91161487     1.34900
C164        C  0.37588433  0.47462498  0.01723391     0.86100
O165        O  0.21210161  0.58643518  0.03200299    -0.78000
O166        O  0.17338227  0.61868724  0.94689727    -0.88200
C167        C  0.28394683  0.47840909  0.14129439     0.85700
O168        O  0.11780537  0.51407867  0.93748240    -0.66400
O169        O  0.33255972  0.34571231  0.05055693    -0.85700
C170        C  0.11762495  0.49173017  0.98276374     0.86500
C171        C  0.18641541  0.62448220  0.99424592     1.08100
H172        H  0.23273935  0.40100660  0.03798541     0.39900
O173        O  0.26010267  0.43159295  0.03538148    -1.08400
O174        O  0.33317069  0.47610336  0.97830274    -0.65000
Ni175      Ni  0.25893962  0.44668391  0.96561368     1.26300
O176        O  0.16063201  0.47931828  0.02045221    -0.65300
O177        O  0.28151668  0.36857870  0.96748737    -0.77600
C178        C  0.20807376  0.47612044  0.85980441     0.85900
O179        O  0.25214694  0.46445686  0.89465119    -0.64700
Ni180      Ni  0.32511164  0.40594679  0.08822414     1.27400
Ni181      Ni  0.23533337  0.50844400  0.03469705     1.26100
H182        H  0.26402660  0.55331954  0.96436549     0.40400
O183        O  0.67326909  0.52036072  0.87089785    -0.79500
O184        O  0.74098307  0.51609158  0.10813463    -0.64200
O185        O  0.73547897  0.55104912  0.96830795    -1.10800
C186        C  0.80914186  0.35829543  0.00963727     1.07400
O187        O  0.82456258  0.49088653  0.13260137    -0.79800
O188        O  0.87719216  0.46650746  0.06697813    -0.65000
Ni189      Ni  0.67149202  0.57729654  0.91457661     1.34900
C190        C  0.87811988  0.49068584  0.02230978     0.86100
O191        O  0.71165926  0.61244722  0.03565320    -0.78000
O192        O  0.66427650  0.63822212  0.95167704    -0.88200
C193        C  0.78520749  0.50521453  0.14301351     0.85700
O194        O  0.61909002  0.52757746  0.93841728    -0.66400
O195        O  0.82026034  0.36292898  0.05701702    -0.85700
C196        C  0.61856013  0.50801431  0.98394870     0.86500
C197        C  0.68048654  0.64669721  0.99861639     1.08100
H198        H  0.73070456  0.42859647  0.03775868     0.39900
O199        O  0.75920789  0.45838096  0.03731119    -1.08400
O200        O  0.83553183  0.50475485  0.98462340    -0.65000
Ni201      Ni  0.76098053  0.47474036  0.96888908     1.26300
O202        O  0.66093230  0.50467417  0.02330625    -0.65300
O203        O  0.78513520  0.39725351  0.97173072    -0.77600
C204        C  0.71352285  0.50513726  0.86254627     0.85900
O205        O  0.75688908  0.49365101  0.89861213    -0.64700
Ni206      Ni  0.82071449  0.42848712  0.09199446     1.27400
Ni207      Ni  0.73511694  0.53485841  0.03747984     1.26100
H208        H  0.76299028  0.58179004  0.96663653     0.40400
C209        C  0.42746833  0.48801937  0.00869849    -0.17100
C210        C  0.47110246  0.49078812  0.00293851     0.06900
C211        C  0.52270991  0.49123299  0.99684488     0.08800
C212        C  0.56656396  0.49420282  0.99153352    -0.18000
C213        C  0.06595008  0.48521112  0.99225894    -0.17100
C214        C  0.02322590  0.48832688  0.99907889     0.06900
C215        C  0.97293012  0.49463156  0.00673264     0.08800
C216        C  0.93009207  0.49752240  0.01339414    -0.18000
C217        C  0.40961549  0.16214537  0.97261704    -0.17100
C218        C  0.38770396  0.20427302  0.97617739     0.06900
C219        C  0.35899372  0.24899538  0.98347080     0.08800
C220        C  0.33598584  0.28695967  0.99183016    -0.18000
C221        C  0.65963260  0.69603667  0.01060050    -0.17100
C222        C  0.63770443  0.73461560  0.01943436     0.06900
C223        C  0.61075639  0.78022324  0.02777245     0.08800
C224        C  0.59039801  0.82306054  0.03221228    -0.18000
C225        C  0.81978140  0.99738169  0.95923491    -0.17100
C226        C  0.77509830  0.99896168  0.96004813     0.06900
C227        C  0.72480042  0.00595263  0.96430206     0.08800
C228        C  0.68388445  0.01072075  0.97223748    -0.18000
C229        C  0.18233235  0.99075034  0.04816301    -0.17100
C230        C  0.22684168  0.98910260  0.04686933     0.06900
C231        C  0.27679273  0.98195232  0.04185280     0.08800
C232        C  0.31740232  0.97683992  0.03343597    -0.18000
C233        C  0.91594709  0.19570444  0.98327103    -0.17100
C234        C  0.88899227  0.23253413  0.98693447     0.06900
C235        C  0.85520605  0.27237172  0.99220050     0.08800
C236        C  0.82960956  0.30863339  0.99869952    -0.18000
C237        C  0.16675965  0.67469652  0.00554940    -0.17100
C238        C  0.14277765  0.71210548  0.01291467     0.06900
C239        C  0.11125217  0.75376565  0.01954250     0.08800
C240        C  0.08583992  0.79171663  0.02411544    -0.18000
C241        C  0.70976139  0.49937806  0.81093351    -0.17100
C242        C  0.71061705  0.49682803  0.76841718     0.06900
C243        C  0.71578838  0.49643361  0.71970838     0.08800
C244        C  0.72392273  0.49806501  0.67955208    -0.18000
C245        C  0.76644637  0.51173590  0.32203458    -0.17100
C246        C  0.77758538  0.51272745  0.28353668     0.06900
C247        C  0.78699844  0.51210570  0.23681039     0.08800
C248        C  0.79009022  0.50991133  0.19508386    -0.18000
C249        C  0.22417647  0.47211926  0.67895625    -0.17100
C250        C  0.21364699  0.46974720  0.71802050     0.06900
C251        C  0.20527632  0.46926413  0.76550452     0.08800
C252        C  0.20286332  0.47115376  0.80760475    -0.18000
C253        C  0.27035835  0.49124693  0.32196242    -0.17100
C254        C  0.27980502  0.49128388  0.28265919     0.06900
C255        C  0.28651185  0.48891534  0.23489648     0.08800
C256        C  0.28804850  0.48505210  0.19285256    -0.18000
C257        C  0.55288007  0.52364084  0.47905486    -0.17100
C258        C  0.51635959  0.50392102  0.49317091     0.06900
C259        C  0.47638950  0.47522048  0.51148184     0.08800
C260        C  0.43909877  0.45675844  0.52474294    -0.18000
C261        C  0.05581358  0.51172935  0.47657274    -0.17100
C262        C  0.01750640  0.50482822  0.48984927     0.06900
C263        C  0.97496848  0.49245954  0.50859680     0.08800
C264        C  0.93679960  0.48423845  0.52210916    -0.18000
C265        C  0.46010276  0.98519110  0.80858773    -0.17100
C266        C  0.45823670  0.98318111  0.76504116     0.06900
C267        C  0.45788773  0.98301058  0.71417766     0.08800
C268        C  0.46161192  0.98576109  0.67189491    -0.18000
C269        C  0.53623208  0.99707291  0.33269562    -0.17100
C270        C  0.54138420  0.99907458  0.29110325     0.06900
C271        C  0.54223673  0.99896942  0.24065611     0.08800
C272        C  0.54083195  0.99771001  0.19713492    -0.18000
C273        C  0.35300392  0.64565023  0.51559614    -0.17100
C274        C  0.37400990  0.69516417  0.50919548     0.06900
C275        C  0.39864415  0.75325188  0.50167047     0.08800
C276        C  0.41638381  0.80422783  0.49400397    -0.18000
C277        C  0.58050548  0.18074916  0.50979375    -0.17100
C278        C  0.59872038  0.23165873  0.50302062     0.06900
C279        C  0.62345095  0.28984066  0.49635679     0.08800
C280        C  0.64390089  0.33965217  0.48993000    -0.18000
C281        C  0.01868105  0.96544115  0.69549059    -0.17100
C282        C  0.01275169  0.96403379  0.73651286     0.06900
C283        C  0.00470804  0.96651388  0.78339710     0.08800
C284        C  0.99805034  0.97206739  0.82279434    -0.18000
C285        C  0.00320425  0.01653447  0.18423900    -0.17100
C286        C  0.99497624  0.02295508  0.22265643     0.06900
C287        C  0.98454909  0.02639049  0.26817485     0.08800
C288        C  0.97700848  0.02538748  0.30838461    -0.18000
C289        C  0.70164846  0.99398368  0.56105418    -0.17100
C290        C  0.74487935  0.00244550  0.55750243     0.06900
C291        C  0.78993126  0.01719822  0.54319836     0.08800
C292        C  0.82547598  0.02674922  0.52602585    -0.18000
C293        C  0.29385377  0.98894617  0.44348054    -0.17100
C294        C  0.25093499  0.98020998  0.44782406     0.06900
C295        C  0.20595271  0.96653250  0.46244856     0.08800
C296        C  0.17008594  0.95876719  0.47921277    -0.18000
C297        C  0.89204967  0.83653262  0.48955941    -0.17100
C298        C  0.87424863  0.78547017  0.49555156     0.06900
C299        C  0.85296241  0.72594214  0.50336306     0.08800
C300        C  0.83655809  0.67451592  0.51097613    -0.18000
C301        C  0.10417155  0.15292635  0.51250355    -0.17100
C302        C  0.12122574  0.20412289  0.50523685     0.06900
C303        C  0.14071162  0.26415646  0.49570514     0.08800
C304        C  0.15532774  0.31611747  0.48708949    -0.18000
loop_ 
_geom_bond_atom_site_label_1 
_geom_bond_atom_site_label_2 
_geom_bond_distance 
_geom_bond_site_symmetry_2 
_ccdc_geom_bond_type 
O1           Ni7   1.934       .  S
O1           C22   1.271       .  A
O2          Ni25   1.897       .  S
O2           C11   1.263   1_655  A
O3           Ni7   1.926       .  S
O3          Ni25   1.906   1_545  S
O3          Ni19   1.902   1_645  S
O3           H26   0.966       .  S
C4           O21   1.258       .  A
C4           O13   1.271       .  A
C4          C296   1.414       .  S
O5          Ni24   1.934       .  S
O5           C11   1.271       .  A
O6          Ni24   1.908   1_545  S
O6            C8   1.270       .  A
Ni7          O10   1.932       .  S
Ni7          O12   1.907   1_545  S
C8           O18   1.276       .  A
C8          C301   1.438       .  S
O9          Ni25   1.879   1_545  S
O9           C15   1.257       .  A
O10          C15   1.270       .  A
C11         C281   1.436       .  S
O12          C14   1.270       .  A
O13         Ni24   1.932       .  S
C14          O20   1.277       .  A
C14         C297   1.438       .  S
C15         C292   1.413       .  S
H16          O17   0.966       .  S
O17         Ni25   1.899   1_455  S
O17         Ni19   1.905       .  S
O17         Ni24   1.925       .  S
O18         Ni19   1.948   1_545  S
Ni19         O23   1.894   1_565  S
Ni19         O21   1.879       .  S
O20         Ni25   1.951       .  S
C22          O23   1.262   1_655  A
C22         C288   1.435       .  S
O27         Ni33   1.926       .  S
O27          C48   1.268       .  A
O28         Ni51   1.923       .  S
O28          C37   1.269       .  A
O29         Ni33   1.912   1_545  S
O29         Ni51   1.909   1_545  S
O29         Ni45   1.904       .  S
O29          H52   0.966       .  S
C30          O47   1.273       .  A
C30          O39   1.273   1_565  A
C30         C289   1.412       .  S
O31         Ni50   1.924       .  S
O31          C37   1.267   1_545  A
O32         Ni50   1.910       .  S
O32          C34   1.268       .  A
Ni33         O36   1.915       .  S
Ni33         O38   1.912       .  S
C34          O44   1.273       .  A
C34         C277   1.443       .  S
O35         Ni51   1.897       .  S
O35          C41   1.272       .  A
O36          C41   1.273       .  A
C37         C268   1.443       .  S
O38          C40   1.268       .  A
O39         Ni50   1.913       .  S
C40          O46   1.272       .  A
C40         C276   1.443       .  S
C41         C293   1.413       .  S
H42          O43   0.966       .  S
O43         Ni51   1.902       .  S
O43         Ni45   1.906   1_565  S
O43         Ni50   1.910   1_565  S
O44         Ni45   1.937       .  S
Ni45         O49   1.922       .  S
Ni45         O47   1.898   1_545  S
O46         Ni51   1.934       .  S
C48          O49   1.269   1_565  A
C48         C269   1.442       .  S
O53         Ni59   1.931       .  S
O53          C74   1.270       .  A
O54         Ni77   1.907       .  S
O54          C63   1.265       .  A
O55         Ni59   1.929       .  S
O55         Ni77   1.912       .  S
O55         Ni71   1.910       .  S
O55          H78   0.966       .  S
C56          O73   1.261       .  A
C56          O65   1.269       .  A
C56         C260   1.412       .  S
O57         Ni76   1.935       .  S
O57          C63   1.271       .  A
O58         Ni76   1.912       .  S
O58          C60   1.272       .  A
Ni59         O62   1.933       .  S
Ni59         O64   1.908       .  S
C60          O70   1.278       .  A
C60         C273   1.444       .  S
O61         Ni77   1.883       .  S
O61          C67   1.259       .  A
O62          C67   1.269       .  A
C63         C249   1.443       .  S
O64          C66   1.271       .  A
O65         Ni76   1.925       .  S
C66          O72   1.277       .  A
C66         C304   1.438       .  S
C67         C261   1.417       .  S
H68          O69   0.966       .  S
O69         Ni77   1.900       .  S
O69         Ni71   1.909       .  S
O69         Ni76   1.923       .  S
O70         Ni71   1.953       .  S
Ni71         O75   1.910       .  S
Ni71         O73   1.886       .  S
O72         Ni77   1.948       .  S
C74          O75   1.267       .  A
C74         C253   1.443       .  S
O79         Ni85   1.934       .  S
O79         C100   1.271       .  A
O80        Ni103   1.910       .  S
O80          C89   1.267       .  A
O81         Ni85   1.924       .  S
O81        Ni103   1.908       .  S
O81         Ni97   1.901       .  S
O81         H104   0.966       .  S
C82          O99   1.259       .  A
C82          O91   1.268       .  A
C82         C264   1.417       .  S
O83        Ni102   1.928       .  S
O83          C89   1.270       .  A
O84        Ni102   1.907       .  S
O84          C86   1.271       .  A
Ni85         O88   1.927       .  S
Ni85         O90   1.911       .  S
C86          O96   1.278       .  A
C86         C300   1.438       .  S
O87        Ni103   1.887       .  S
O87          C93   1.261       .  A
O88          C93   1.269       .  A
C89         C244   1.441       .  S
O90          C92   1.272       .  A
O91        Ni102   1.931       .  S
C92          O98   1.278       .  A
C92         C280   1.443       .  S
C93         C257   1.413       .  S
H94          O95   0.967       .  S
O95        Ni103   1.911       .  S
O95         Ni97   1.910       .  S
O95        Ni102   1.927       .  S
O96         Ni97   1.951       .  S
Ni97        O101   1.905       .  S
Ni97         O99   1.884       .  S
O98        Ni103   1.954       .  S
C100        O101   1.265       .  A
C100        C245   1.440       .  S
O105       Ni111   1.937       .  S
O105        C126   1.271   1_545  A
O106       Ni129   1.895       .  S
O106        C115   1.262   1_655  A
O107       Ni111   1.927       .  S
O107       Ni129   1.907   1_556  S
O107       Ni123   1.913   1_645  S
O107        H130   0.966   1_655  S
C108        O125   1.271   1_554  A
C108        O117   1.274       .  A
C108        C240   1.433       .  S
O109       Ni128   1.940       .  S
O109        C115   1.272   1_565  A
O110       Ni128   1.916       .  S
O110        C112   1.270       .  A
Ni111       O114   1.925       .  S
Ni111       O116   1.915       .  S
C112        O122   1.273       .  A
C112        C229   1.448       .  S
O113       Ni129   1.906       .  S
O113        C119   1.270   1_554  A
O114        C119   1.273       .  A
C115        C285   1.435       .  S
O116        C118   1.270       .  A
O117       Ni128   1.929       .  S
C118        O124   1.273   1_556  A
C118        C225   1.447   1_545  S
C119        C233   1.429       .  S
H120        O121   0.966   1_655  S
O121       Ni129   1.912   1_465  S
O121       Ni123   1.908   1_554  S
O121       Ni128   1.927       .  S
O122       Ni123   1.937   1_554  S
Ni123       O127   1.899       .  S
Ni123       O125   1.906       .  S
O124       Ni129   1.936       .  S
C126        O127   1.263   1_655  A
C126        C284   1.435       .  S
O131       Ni137   1.938       .  S
O131        C152   1.271       .  A
O132       Ni155   1.908       .  S
O132        C141   1.266       .  A
O133       Ni137   1.931   1_545  S
O133       Ni155   1.917   1_544  S
O133       Ni149   1.926   1_545  S
O133        H156   0.966       .  S
C134        O151   1.274       .  A
C134        O143   1.272   1_554  A
C134        C232   1.449       .  S
O135       Ni154   1.940       .  S
O135        C141   1.272   1_545  A
O136       Ni154   1.911       .  S
O136        C138   1.270       .  A
Ni137       O140   1.930       .  S
Ni137       O142   1.911       .  S
C138        O148   1.274   1_556  A
C138        C217   1.442       .  S
O139       Ni155   1.926   1_545  S
O139        C145   1.274       .  A
O140        C145   1.272   1_564  A
C141        C265   1.444       .  S
O142        C144   1.270       .  A
O143       Ni154   1.933   1_565  S
C144        O150   1.273   1_554  A
C144        C224   1.441       .  S
C145        C228   1.448       .  S
H146        O147   0.966       .  S
O147       Ni155   1.926       .  S
O147       Ni149   1.917   1_556  S
O147       Ni154   1.930   1_565  S
O148       Ni149   1.938   1_545  S
Ni149       O153   1.909   1_565  S
Ni149       O151   1.926       .  S
O150       Ni155   1.934       .  S
C152        O153   1.266   1_565  A
C152        C272   1.443       .  S
O157       Ni163   1.948       .  S
O157        C178   1.278       .  A
O158       Ni181   1.900       .  S
O158        C167   1.267       .  A
O159       Ni163   1.916       .  S
O159       Ni181   1.900   1_556  S
O159       Ni175   1.919       .  S
O159        H182   0.966       .  S
C160        O177   1.275   1_554  A
C160        O169   1.277       .  A
C160        C220   1.444   1_554  S
O161       Ni180   1.950       .  S
O161        C167   1.277       .  A
O162       Ni180   1.929       .  S
O162        C164   1.273       .  A
Ni163       O166   1.925       .  S
Ni163       O168   1.937       .  S
C164        O174   1.281   1_554  A
C164        C209   1.477       .  S
O165       Ni181   1.918       .  S
O165        C171   1.276   1_554  A
O166        C171   1.276       .  A
C167        C256   1.443       .  S
O168        C170   1.276       .  A
O169       Ni180   1.937       .  S
C170        O176   1.285   1_556  A
C170        C213   1.489       .  S
C171        C237   1.433   1_556  S
H172        O173   0.966       .  S
O173       Ni181   1.926       .  S
O173       Ni175   1.908   1_554  S
O173       Ni180   1.925       .  S
O174       Ni175   1.966       .  S
Ni175       O179   1.899       .  S
Ni175       O177   1.919       .  S
O176       Ni181   1.971       .  S
C178        O179   1.266       .  A
C178        C252   1.443       .  S
O183       Ni189   1.949       .  S
O183        C204   1.277       .  A
O184       Ni207   1.898       .  S
O184        C193   1.266       .  A
O185       Ni189   1.920       .  S
O185       Ni207   1.905   1_556  S
O185       Ni201   1.924       .  S
O185        H208   0.966       .  S
C186        O203   1.276   1_554  A
C186        O195   1.276       .  A
C186        C236   1.429   1_554  S
O187       Ni206   1.945       .  S
O187        C193   1.277       .  A
O188       Ni206   1.939       .  S
O188        C190   1.276       .  A
Ni189       O192   1.936       .  S
Ni189       O194   1.929       .  S
C190        O200   1.284   1_554  A
C190        C216   1.489       .  S
O191       Ni207   1.918       .  S
O191        C197   1.275   1_554  A
O192        C197   1.278       .  A
C193        C248   1.440       .  S
O194        C196   1.273       .  A
O195       Ni206   1.921       .  S
C196        O202   1.281   1_556  A
C196        C212   1.477       .  S
C197        C221   1.443   1_556  S
H198        O199   0.966       .  S
O199       Ni207   1.917       .  S
O199       Ni201   1.897   1_554  S
O199       Ni206   1.912       .  S
O200       Ni201   1.970       .  S
Ni201       O205   1.900       .  S
Ni201       O203   1.917       .  S
O202       Ni207   1.965       .  S
C204        O205   1.267       .  A
C204        C241   1.442       .  S
C209        C210   1.231       .  T
C210        C211   1.454   1_554  S
C211        C212   1.231       .  T
C213        C214   1.239       .  T
C214        C215   1.465   1_456  S
C215        C216   1.239       .  T
C217        C218   1.211       .  T
C218        C219   1.421       .  S
C219        C220   1.211       .  T
C221        C222   1.211       .  T
C222        C223   1.420       .  S
C223        C224   1.210       .  T
C225        C226   1.214       .  T
C226        C227   1.426   1_565  S
C227        C228   1.214       .  T
C229        C230   1.214       .  T
C230        C231   1.427       .  S
C231        C232   1.215       .  T
C233        C234   1.203       .  T
C234        C235   1.408       .  S
C235        C236   1.203       .  T
C237        C238   1.205       .  T
C238        C239   1.411       .  S
C239        C240   1.205       .  T
C241        C242   1.209       .  T
C242        C243   1.418       .  S
C243        C244   1.209       .  T
C245        C246   1.209       .  T
C246        C247   1.417       .  S
C247        C248   1.209       .  T
C249        C250   1.210       .  T
C250        C251   1.419       .  S
C251        C252   1.210       .  T
C253        C254   1.210       .  T
C254        C255   1.419       .  S
C255        C256   1.210       .  T
C257        C258   1.194       .  T
C258        C259   1.394       .  S
C259        C260   1.194       .  T
C261        C262   1.196       .  T
C262        C263   1.396   1_455  S
C263        C264   1.196       .  T
C265        C266   1.211       .  T
C266        C267   1.420       .  S
C267        C268   1.211       .  T
C269        C270   1.210       .  T
C270        C271   1.420       .  S
C271        C272   1.210       .  T
C273        C274   1.211       .  T
C274        C275   1.421       .  S
C275        C276   1.211       .  T
C277        C278   1.211       .  T
C278        C279   1.421       .  S
C279        C280   1.211       .  T
C281        C282   1.206       .  T
C282        C283   1.412       .  S
C283        C284   1.206   1_455  T
C285        C286   1.206   1_455  T
C286        C287   1.412       .  S
C287        C288   1.205       .  T
C289        C290   1.192   1_565  T
C290        C291   1.391       .  S
C291        C292   1.193       .  T
C293        C294   1.193       .  T
C294        C295   1.392       .  S
C295        C296   1.193       .  T
C297        C298   1.208       .  T
C298        C299   1.416       .  S
C299        C300   1.208       .  T
C301        C302   1.208       .  T
C302        C303   1.415       .  S
C303        C304   1.208       .  T
