geometry optimzed in LAMMPS
_audit_creation_date              2020-12-01 
_audit_creation_method            'lammps2cif' 
_symmetry_space_group_name_H-M    'P1' 
_symmetry_Int_Tables_number       1 
_symmetry_cell_setting            triclinic 
loop_ 
_symmetry_equiv_pos_as_xyz 
  x,y,z 
_cell_length_a                    32.1046334 
_cell_length_b                    31.887780532104692 
_cell_length_c                    24.362659959706296 
_cell_angle_alpha                 89.84305609149006 
_cell_angle_beta                  89.43559661340491 
_cell_angle_gamma                 80.02508839709317 
loop_ 
_atom_site_label 
_atom_site_type_symbol 
_atom_site_fract_x 
_atom_site_fract_y 
_atom_site_fract_z 
_atom_site_charge 
N1          N  0.07189329  0.99143580  0.89290851    -0.06700
N2          N  0.09545061  0.00522268  0.85433780    -0.58800
N3          N  0.03696949  0.90372285  0.93530763    -0.06300
N4          N  0.04056170  0.86236119  0.92715855    -0.60900
N5          N  0.01284903  0.92498292  0.89758254    -0.05900
N6          N  0.99964427  0.89835948  0.86289396    -0.58800
N7          N  0.09600075  0.96983861  0.93035596    -0.05600
N8          N  0.13632716  0.96851987  0.91807694    -0.61300
C9          C  0.13560857  0.99087307  0.87072879     0.95500
C10         C  0.01705341  0.85934734  0.88202356     0.95300
N11         N  0.01796410  0.92620057  0.10355503    -0.06900
N12         N  0.00664167  0.90039947  0.14120004    -0.59400
N13         N  0.09953191  0.97050918  0.05978183    -0.05000
N14         N  0.14032026  0.96969514  0.06741129    -0.60600
N15         N  0.07721688  0.99225793  0.09910787    -0.06900
N16         N  0.10241768  0.00664154  0.13434269    -0.59600
N17         N  0.04093286  0.90429039  0.06488679    -0.04600
N18         N  0.04615681  0.86314182  0.07574488    -0.60700
Mn19       Mn  0.06922724  0.93628966  0.99746731     1.18400
C20         C  0.02433792  0.86119499  0.12320125     0.97600
C21         C  0.14171496  0.99255207  0.11390217     0.98300
N22         N  0.93327051  0.99927614  0.90085986    -0.06900
N23         N  0.90810024  0.98449890  0.86595954    -0.63200
N24         N  0.96963478  0.08717804  0.93628696    -0.05700
N25         N  0.96601340  0.12849909  0.92779369    -0.63900
N26         N  0.99222404  0.06576626  0.89688514    -0.06400
N27         N  0.00440944  0.09225118  0.86067962    -0.63500
N28         N  0.91092753  0.02091249  0.94029614    -0.05300
N29         N  0.87017603  0.02130367  0.93299453    -0.64200
Mn30       Mn  0.00251418  0.99540172  0.89526905     1.10700
C31         C  0.86882659  0.99830027  0.88664521     0.98800
C32         C  0.98789959  0.13129490  0.88062961     0.98900
N33         N  0.99808685  0.06624408  0.10162177    -0.06400
N34         N  0.01260932  0.09245854  0.13549029    -0.61800
N35         N  0.91421318  0.02141944  0.07001291    -0.05700
N36         N  0.87400316  0.02191880  0.08244469    -0.58500
N37         N  0.93872780  0.00001538  0.10719045    -0.07000
N38         N  0.91567013  0.98542783  0.14561926    -0.61400
N39         N  0.97286654  0.08777739  0.06525031    -0.06000
N40         N  0.96930722  0.12909742  0.07398524    -0.58500
Mn41       Mn  0.00799639  0.99622115  0.10439544     1.20200
Mn42       Mn  0.94088790  0.05512560  0.00296751     1.10100
Cl43       Cl  0.00513070  0.99572120  0.99998131    -0.86500
C44         C  0.99445687  0.13152999  0.11768910     0.95800
C45         C  0.87534809  0.99915642  0.12957365     0.95600
C46         C  0.99503079  0.53441506  0.38103177     0.79700
N47         N  0.99859904  0.53345813  0.43653975    -0.78600
C48         C  0.99798084  0.49670171  0.46461233     0.82100
N49         N  0.99403871  0.46070131  0.43685488    -0.78600
C50         C  0.99115812  0.46125946  0.38125267     0.82200
N51         N  0.99147963  0.49821978  0.35360945    -0.80300
C52         C  0.00573514  0.53207657  0.60831709     0.79700
N53         N  0.00376669  0.53218757  0.55260272    -0.78600
C54         C  0.00083687  0.49607069  0.52473508     0.82100
N55         N  0.99988976  0.45949228  0.55280462    -0.78600
C56         C  0.00193716  0.45861197  0.60848001     0.82200
N57         N  0.00480509  0.49509347  0.63606369    -0.80300
C58         C  0.46441267  0.99553573  0.38971989     0.79700
N59         N  0.50021594  0.99477293  0.35924553    -0.78600
C60         C  0.53865078  0.99113196  0.38337691     0.82100
N61         N  0.54109776  0.98842183  0.43901263    -0.78600
C62         C  0.50561373  0.98910344  0.47014252     0.82200
N63         N  0.46736877  0.99255842  0.44531420    -0.80300
C64         C  0.47491975  0.98492275  0.61689972     0.79700
N65         N  0.47289080  0.98678315  0.56123225    -0.78600
C66         C  0.50846728  0.98652702  0.53043434     0.82100
N67         N  0.54643170  0.98444213  0.55568090    -0.79300
C68         C  0.54890363  0.98245417  0.61141730     0.82200
N69         N  0.51300650  0.98274080  0.64146677    -0.80300
C70         C  0.99134654  0.17204038  0.85338358    -0.03700
C71         C  0.97211814  0.21070485  0.87722302    -0.06400
C72         C  0.97422711  0.24935524  0.85122197    -0.21400
C73         C  0.99530749  0.25031869  0.80064968     0.24300
C74         C  0.01531268  0.21157070  0.77718624    -0.19000
C75         C  0.01318371  0.17281691  0.80328723    -0.09000
C76         C  0.99611993  0.29241478  0.77458719    -0.19200
C77         C  0.00297782  0.29760202  0.72056317    -0.24000
C78         C  0.00192885  0.33979612  0.69380751     0.26300
C79         C  0.99730756  0.34246570  0.63666289    -0.20800
C80         C  0.99685681  0.38103414  0.60923942    -0.10500
C81         C  0.00127955  0.41804950  0.63828961    -0.11000
C82         C  0.00584112  0.41551980  0.69558851    -0.03900
C83         C  0.00638143  0.37681110  0.72307773    -0.19000
H84         H  0.95518776  0.21113890  0.91593804     0.10000
H85         H  0.95887103  0.27865482  0.87046303     0.10100
H86         H  0.03308474  0.21088756  0.73918671     0.09800
H87         H  0.02860135  0.14348028  0.78423908     0.10900
H88         H  0.98815194  0.32018378  0.80068724     0.11000
H89         H  0.00736708  0.27001898  0.69381468     0.12900
H90         H  0.99399072  0.31452839  0.61300999     0.09400
H91         H  0.99325023  0.38166970  0.56508786     0.11500
H92         H  0.00958813  0.44331522  0.71921260     0.08100
H93         H  0.01119554  0.37609705  0.76692353     0.10900
C94         C  0.01393685  0.81846728  0.85492372    -0.03700
C95         C  0.03300176  0.77983435  0.87878837    -0.06400
C96         C  0.03223549  0.74115266  0.85234564    -0.21400
C97         C  0.01267172  0.74001727  0.80123074     0.24300
C98         C  0.99259009  0.77871220  0.77786154    -0.19000
C99         C  0.99332238  0.81751416  0.80446484    -0.09000
C100        C  0.01337148  0.69775989  0.77477773    -0.19200
C101        C  0.00648076  0.69245017  0.72092142    -0.24000
C102        C  0.00789577  0.65020686  0.69401144     0.26300
C103        C  0.00942681  0.64839867  0.63645577    -0.20800
C104        C  0.00941323  0.61004629  0.60886992    -0.10500
C105        C  0.00767970  0.57229656  0.63813762    -0.11000
C106        C  0.00654610  0.57385534  0.69581240    -0.03900
C107        C  0.00644633  0.61234095  0.72348188    -0.19000
H108        H  0.04893108  0.77946571  0.91780346     0.10000
H109        H  0.04753316  0.71194809  0.87168015     0.10100
H110        H  0.97591169  0.77936049  0.73946734     0.09800
H111        H  0.97806511  0.84678559  0.78530037     0.10900
H112        H  0.02201172  0.67001495  0.80071842     0.11000
H113        H  0.00103806  0.72016313  0.69435140     0.12900
H114        H  0.01042898  0.67691733  0.61255915     0.09400
H115        H  0.01035939  0.61018489  0.56442989     0.11500
H116        H  0.00497818  0.54546858  0.71968625     0.08100
H117        H  0.00423187  0.61211998  0.76774679     0.10900
C118        C  0.99877442  0.17156216  0.14539589    -0.03700
C119        C  0.03505998  0.17436682  0.17587191    -0.06400
C120        C  0.03852163  0.21199115  0.20346882    -0.21400
C121        C  0.00518473  0.24680113  0.20258554     0.24300
C122        C  0.96891949  0.24406830  0.17191022    -0.19000
C123        C  0.96597595  0.20688915  0.14301528    -0.09000
C124        C  0.00936732  0.28605560  0.23268629    -0.19200
C125        C  0.97702776  0.30867067  0.26114345    -0.24000
C126        C  0.98150153  0.34755348  0.29197407     0.26300
C127        C  0.96079664  0.35576733  0.34279344    -0.20800
C128        C  0.96457449  0.39238787  0.37250292    -0.10500
C129        C  0.98791627  0.42206701  0.35085679    -0.11000
C130        C  0.00791301  0.41427918  0.29948250    -0.03900
C131        C  0.00512035  0.37712668  0.27052731    -0.19000
H132        H  0.06082982  0.14756335  0.17803686     0.10000
H133        H  0.06688407  0.21365208  0.22647711     0.10100
H134        H  0.94312988  0.27083615  0.16971647     0.09800
H135        H  0.93767232  0.20542231  0.11980243     0.10900
H136        H  0.04046072  0.29505875  0.23430055     0.11000
H137        H  0.94721512  0.29705330  0.26445076     0.12900
H138        H  0.94215109  0.33353012  0.35979366     0.09400
H139        H  0.94860718  0.39794386  0.41186231     0.11500
H140        H  0.02608620  0.43674351  0.28200041     0.08100
H141        H  0.02070914  0.37195608  0.23089790     0.10900
C142        C  0.99374798  0.57466646  0.35074744    -0.03700
C143        C  0.96788932  0.58332993  0.30450769    -0.06400
C144        C  0.96594831  0.62171810  0.27611170    -0.21400
C145        C  0.99088922  0.65138681  0.29231401     0.24300
C146        C  0.01685503  0.64276656  0.33855200    -0.19000
C147        C  0.01787273  0.60487641  0.36794117    -0.09000
C148        C  0.98882001  0.69140539  0.26091107    -0.19200
C149        C  0.02365378  0.70779071  0.24891466    -0.24000
C150        C  0.02239964  0.74687621  0.21563720     0.26300
C151        C  0.05656241  0.75031712  0.18060796    -0.20800
C152        C  0.05665085  0.78713044  0.14939786    -0.10500
C153        C  0.02311674  0.82162469  0.15402359    -0.11000
C154        C  0.98917674  0.81851554  0.18964364    -0.03900
C155        C  0.98856925  0.78126194  0.21982584    -0.19000
H156        H  0.94865058  0.56068420  0.29087666     0.10000
H157        H  0.94550669  0.62796341  0.24082851     0.10100
H158        H  0.03581769  0.66558299  0.35239575     0.09800
H159        H  0.03794081  0.59889151  0.40359888     0.10900
H160        H  0.95855570  0.70586264  0.24386214     0.11000
H161        H  0.05442445  0.69055250  0.26103186     0.12900
H162        H  0.08309843  0.72432806  0.17714046     0.09400
H163        H  0.08339582  0.78903021  0.12263668     0.11500
H164        H  0.96308146  0.84485672  0.19399737     0.08100
H165        H  0.96222104  0.77981899  0.24741858     0.10900
C166        C  0.82922496  0.99236934  0.85951928    -0.03700
C167        C  0.78985850  0.01020295  0.88242063    -0.06400
C168        C  0.75240516  0.00675152  0.85541194    -0.21400
C169        C  0.75337854  0.98569235  0.80475389     0.24300
C170        C  0.79281426  0.96668214  0.78258470    -0.19000
C171        C  0.83033457  0.97013271  0.80968183    -0.09000
C172        C  0.71255030  0.98402005  0.77709703    -0.19200
C173        C  0.70893133  0.97717608  0.72285240    -0.24000
C174        C  0.66760238  0.97787375  0.69521925     0.26300
C175        C  0.66494577  0.98515690  0.63834771    -0.20800
C176        C  0.62661079  0.98646957  0.61088310    -0.10500
C177        C  0.59000804  0.98036119  0.63975136    -0.11000
C178        C  0.59286471  0.97237740  0.69654896    -0.03900
C179        C  0.63115856  0.97086753  0.72388946    -0.19000
H180        H  0.78796939  0.02734898  0.92092290     0.10000
H181        H  0.72251827  0.02127089  0.87377587     0.10100
H182        H  0.79497561  0.94890047  0.74464531     0.09800
H183        H  0.86024048  0.95568460  0.79135638     0.10900
H184        H  0.68417174  0.99155274  0.80221524     0.11000
H185        H  0.73690915  0.97343233  0.69678067     0.12900
H186        H  0.69256696  0.99030358  0.61512464     0.09400
H187        H  0.62561088  0.99262819  0.56714386     0.11500
H188        H  0.56549569  0.96695036  0.72006424     0.08100
H189        H  0.63198670  0.96359174  0.76727107     0.10900
C190        C  0.17388998  0.99478225  0.83813158    -0.03700
C191        C  0.17061947  0.01547556  0.78703669    -0.06400
C192        C  0.20676847  0.01675053  0.75492883    -0.21400
C193        C  0.24698515  0.99754320  0.77317476     0.24300
C194        C  0.25013392  0.97690892  0.82459129    -0.19000
C195        C  0.21402494  0.97581461  0.85671789    -0.09000
C196        C  0.28425316  0.99833593  0.73635805    -0.19200
C197        C  0.32477735  0.98859192  0.75286330    -0.24000
C198        C  0.36226231  0.98830214  0.71621733     0.26300
C199        C  0.40191091  0.98694818  0.74056918    -0.20800
C200        C  0.43832710  0.98578159  0.70839942    -0.10500
C201        C  0.43609457  0.98582084  0.65079417    -0.11000
C202        C  0.39649299  0.98680430  0.62621951    -0.03900
C203        C  0.35999300  0.98784748  0.65848005    -0.19000
H204        H  0.14006267  0.03016940  0.77148891     0.10000
H205        H  0.20323306  0.03257421  0.71542113     0.10100
H206        H  0.28001400  0.96051544  0.83995803     0.09800
H207        H  0.21749589  0.95927612  0.89573188     0.10900
H208        H  0.27759006  0.00843859  0.69437671     0.11000
H209        H  0.33138799  0.98164767  0.79576251     0.12900
H210        H  0.40477748  0.98686887  0.78484774     0.09400
H211        H  0.46824858  0.98491575  0.72886509     0.11500
H212        H  0.39365234  0.98650266  0.58197375     0.08100
H213        H  0.33046226  0.98755941  0.63774863     0.10900
C214        C  0.83755445  0.99330947  0.16198034    -0.03700
C215        C  0.84186338  0.97113547  0.21203948    -0.06400
C216        C  0.80623697  0.96749341  0.24400807    -0.21400
C217        C  0.76550352  0.98568115  0.22659409     0.24300
C218        C  0.76126203  0.00785748  0.17627475    -0.19000
C219        C  0.79690180  0.01139799  0.14427795    -0.09000
C220        C  0.72877349  0.98260571  0.26337592    -0.19200
C221        C  0.68823940  0.98935282  0.24656953    -0.24000
C222        C  0.65098699  0.98840947  0.28333885     0.26300
C223        C  0.61142299  0.98862736  0.25917568    -0.20800
C224        C  0.57510451  0.98943013  0.29153167    -0.10500
C225        C  0.57737804  0.99002715  0.34913278    -0.11000
C226        C  0.61694199  0.98974820  0.37347700    -0.03900
C227        C  0.65329008  0.98915489  0.34107355    -0.19000
H228        H  0.87282711  0.95702787  0.22688418     0.10000
H229        H  0.81056173  0.95058210  0.28272594     0.10100
H230        H  0.73079471  0.02360804  0.16189901     0.09800
H231        H  0.79264963  0.02904047  0.10610853     0.10900
H232        H  0.73597526  0.97347711  0.30554694     0.11000
H233        H  0.68159514  0.99515638  0.20340774     0.12900
H234        H  0.60850665  0.98836102  0.21491178     0.09400
H235        H  0.54521738  0.98962132  0.27124381     0.11500
H236        H  0.61983924  0.99049050  0.41769517     0.08100
H237        H  0.68267919  0.99015149  0.36178462     0.10900
C238        C  0.42278470  0.99944794  0.36213434    -0.03700
C239        C  0.38607268  0.99419850  0.39145476    -0.06400
C240        C  0.34728044  0.99694803  0.36457089    -0.21400
C241        C  0.34423900  0.00491031  0.30784060     0.24300
C242        C  0.38077637  0.01135801  0.27889668    -0.19000
C243        C  0.41949795  0.00836160  0.30562162    -0.09000
C244        C  0.30251215  0.00686703  0.28054520    -0.19200
C245        C  0.29840350  0.00133447  0.22604625    -0.24000
C246        C  0.25737322  0.00133799  0.19792968     0.26300
C247        C  0.25818975  0.98313468  0.14540365    -0.20800
C248        C  0.22068399  0.98111104  0.11769789    -0.10500
C249        C  0.18135726  0.99758154  0.14171579    -0.11000
C250        C  0.18036823  0.01721465  0.19339967    -0.03900
C251        C  0.21796694  0.01916557  0.22126591    -0.19000
H252        H  0.38734680  0.98750770  0.43506597     0.10000
H253        H  0.31962477  0.99232424  0.38809811     0.10100
H254        H  0.37977043  0.01928860  0.23571688     0.09800
H255        H  0.44689961  0.01330218  0.28182213     0.10900
H256        H  0.27469373  0.01068134  0.30689909     0.11000
H257        H  0.32662100  0.99387302  0.20063755     0.12900
H258        H  0.28802159  0.96966809  0.12603923     0.09400
H259        H  0.22250370  0.96606750  0.07774377     0.11500
H260        H  0.15048940  0.03057002  0.21267762     0.08100
H261        H  0.21585365  0.03478278  0.26076422     0.10900
loop_ 
_geom_bond_atom_site_label_1 
_geom_bond_atom_site_label_2 
_geom_bond_distance 
_geom_bond_site_symmetry_2 
_ccdc_geom_bond_type 
N1            N2   1.322   1_565  A
N1            N7   1.316       .  A
N1          Mn30   2.209       .  S
N2            C9   1.355   1_545  A
N3            N5   1.316       .  A
N3            N4   1.319       .  A
N3          Mn19   2.204       .  S
N4           C10   1.353       .  A
N5            N6   1.323   1_455  A
N5          Mn30   2.213       .  S
N6           C10   1.356   1_655  A
N7            N8   1.319       .  A
N7          Mn19   2.200       .  S
N8            C9   1.353       .  A
C9          C190   1.480       .  S
C10          C94   1.482       .  S
N11          N17   1.316       .  A
N11          N12   1.320       .  A
N11         Mn41   2.200       .  S
N12          C20   1.353       .  A
N13          N14   1.320       .  A
N13          N15   1.315       .  A
N13         Mn19   2.202   1_554  S
N14          C21   1.354       .  A
N15          N16   1.321   1_565  A
N15         Mn41   2.206       .  S
N16          C21   1.354   1_545  A
N17          N18   1.320       .  A
N17         Mn19   2.202   1_554  S
N18          C20   1.353       .  A
Mn19        Cl43   2.545       .  S
C20         C153   1.473       .  S
C21         C249   1.481       .  S
N22          N23   1.321       .  A
N22          N28   1.316   1_565  A
N22         Mn30   2.208   1_655  S
N23          C31   1.354       .  A
N24          N26   1.316       .  A
N24          N25   1.318       .  A
N24         Mn42   2.196   1_556  S
N25          C32   1.352       .  A
N26          N27   1.322   1_655  A
N26         Mn30   2.211   1_645  S
N27          C32   1.355   1_455  A
N28          N29   1.320       .  A
N28         Mn42   2.202   1_556  S
N29          C31   1.353   1_545  A
Mn30        Cl43   2.553       .  S
C31         C166   1.480       .  S
C32          C70   1.478       .  S
N33          N34   1.320   1_655  A
N33          N39   1.315       .  A
N33         Mn41   2.201   1_645  S
N34          C44   1.353   1_455  A
N35          N36   1.320       .  A
N35          N37   1.315       .  A
N35         Mn42   2.200       .  S
N36          C45   1.354   1_545  A
N37          N38   1.321   1_545  A
N37         Mn41   2.206   1_645  S
N38          C45   1.354       .  A
N39          N40   1.320       .  A
N39         Mn42   2.202       .  S
N40          C44   1.353       .  A
Mn41        Cl43   2.547   1_554  S
Mn42        Cl43   2.548   1_644  S
C44         C118   1.474       .  S
C45         C214   1.480       .  S
C46          N47   1.358       .  A
C46          N51   1.357       .  A
C46         C142   1.473       .  S
N47          C48   1.358       .  A
C48          N49   1.359       .  A
C48          C54   1.468   1_655  S
N49          C50   1.359       .  A
C50          N51   1.357       .  A
C50         C129   1.474       .  S
C52          N53   1.359       .  A
C52          N57   1.362       .  A
C52         C105   1.487       .  S
N53          C54   1.356       .  A
C54          N55   1.355   1_455  A
N55          C56   1.359   1_655  A
C56          N57   1.362       .  A
C56          C81   1.485       .  S
C58          N59   1.359       .  A
C58          N63   1.361       .  A
C58         C238   1.488       .  S
N59          C60   1.359       .  A
C60          N61   1.360       .  A
C60         C225   1.486       .  S
N61          C62   1.359       .  A
C62          N63   1.361       .  A
C62          C66   1.474       .  S
C64          N65   1.359       .  A
C64          N69   1.358       .  A
C64         C201   1.485       .  S
N65          C66   1.359       .  A
C66          N67   1.362       .  A
N67          C68   1.362       .  A
C68          N69   1.358       .  A
C68         C177   1.486       .  S
C70          C71   1.404       .  A
C70          C75   1.404   1_655  A
C71          C72   1.396       .  A
C71          H84   1.083       .  S
C72          C73   1.403       .  A
C72          H85   1.084       .  S
C73          C74   1.410   1_655  A
C73          C76   1.488       .  S
C74          C75   1.400       .  A
C74          H86   1.081       .  S
C75          H87   1.083       .  S
C76          C77   1.347   1_655  D
C76          H88   1.084       .  S
C77          C78   1.489       .  S
C77          H89   1.085       .  S
C78          C79   1.402   1_455  A
C78          C83   1.410       .  A
C79          C80   1.396       .  A
C79          H90   1.083       .  S
C80          C81   1.407   1_655  A
C80          H91   1.083       .  S
C81          C82   1.406       .  A
C82          C83   1.400       .  A
C82          H92   1.083       .  S
C83          H93   1.080       .  S
C94          C95   1.404       .  A
C94          C99   1.405   1_455  A
C95          C96   1.397       .  A
C95         H108   1.083       .  S
C96          C97   1.404       .  A
C96         H109   1.084       .  S
C97          C98   1.411   1_455  A
C97         C100   1.492       .  S
C98          C99   1.402       .  A
C98         H110   1.081       .  S
C99         H111   1.083       .  S
C100        C101   1.349       .  D
C100        H112   1.084       .  S
C101        C102   1.493       .  S
C101        H113   1.084       .  S
C102        C103   1.404       .  A
C102        C107   1.411       .  A
C103        C104   1.397       .  A
C103        H114   1.083       .  S
C104        C105   1.407       .  A
C104        H115   1.083       .  S
C105        C106   1.406       .  A
C106        C107   1.401       .  A
C106        H116   1.083       .  S
C107        H117   1.080       .  S
C118        C119   1.404   1_655  A
C118        C123   1.404       .  A
C119        C120   1.399       .  A
C119        H132   1.083       .  S
C120        C121   1.402       .  A
C120        H133   1.083       .  S
C121        C122   1.405   1_455  A
C121        C124   1.479       .  S
C122        C123   1.398       .  A
C122        H134   1.083       .  S
C123        H135   1.083       .  S
C124        C125   1.345   1_455  D
C124        H136   1.087       .  S
C125        C126   1.480       .  S
C125        H137   1.087       .  S
C126        C127   1.403       .  A
C126        C131   1.405   1_655  A
C127        C128   1.399       .  A
C127        H138   1.083       .  S
C128        C129   1.404       .  A
C128        H139   1.083       .  S
C129        C130   1.404   1_655  A
C130        C131   1.397       .  A
C130        H140   1.083       .  S
C131        H141   1.083       .  S
C142        C143   1.404       .  A
C142        C147   1.404   1_655  A
C143        C144   1.397       .  A
C143        H156   1.083       .  S
C144        C145   1.401       .  A
C144        H157   1.084       .  S
C145        C146   1.406   1_655  A
C145        C148   1.478       .  S
C146        C147   1.398       .  A
C146        H158   1.083       .  S
C147        H159   1.083       .  S
C148        C149   1.343   1_655  D
C148        H160   1.087       .  S
C149        C150   1.480       .  S
C149        H161   1.087       .  S
C150        C151   1.402       .  A
C150        C155   1.406   1_455  A
C151        C152   1.397       .  A
C151        H162   1.084       .  S
C152        C153   1.403       .  A
C152        H163   1.083       .  S
C153        C154   1.403   1_455  A
C154        C155   1.398       .  A
C154        H164   1.083       .  S
C155        H165   1.082       .  S
C166        C167   1.404   1_565  A
C166        C171   1.405       .  A
C167        C168   1.397       .  A
C167        H180   1.083       .  S
C168        C169   1.404   1_545  A
C168        H181   1.083       .  S
C169        C170   1.409       .  A
C169        C172   1.489       .  S
C170        C171   1.400       .  A
C170        H182   1.081       .  S
C171        H183   1.083       .  S
C172        C173   1.349       .  D
C172        H184   1.085       .  S
C173        C174   1.490       .  S
C173        H185   1.085       .  S
C174        C175   1.405       .  A
C174        C179   1.407       .  A
C175        C176   1.401       .  A
C175        H186   1.083       .  S
C176        C177   1.406       .  A
C176        H187   1.083       .  S
C177        C178   1.407       .  A
C178        C179   1.397       .  A
C178        H188   1.083       .  S
C179        H189   1.081       .  S
C190        C191   1.404   1_565  A
C190        C195   1.404       .  A
C191        C192   1.400       .  A
C191        H204   1.083       .  S
C192        C193   1.406   1_545  A
C192        H205   1.083       .  S
C193        C194   1.410       .  A
C193        C196   1.492       .  S
C194        C195   1.398       .  A
C194        H206   1.080       .  S
C195        H207   1.083       .  S
C196        C197   1.349       .  D
C196        H208   1.084   1_565  S
C197        C198   1.490       .  S
C197        H209   1.083       .  S
C198        C199   1.404       .  A
C198        C203   1.409       .  A
C199        C200   1.396       .  A
C199        H210   1.084       .  S
C200        C201   1.406       .  A
C200        H211   1.083       .  S
C201        C202   1.406       .  A
C202        C203   1.400       .  A
C202        H212   1.083       .  S
C203        H213   1.080       .  S
C214        C215   1.404       .  A
C214        C219   1.404   1_565  A
C215        C216   1.399       .  A
C215        H228   1.083       .  S
C216        C217   1.405       .  A
C216        H229   1.083       .  S
C217        C218   1.409   1_565  A
C217        C220   1.491       .  S
C218        C219   1.399       .  A
C218        H230   1.080       .  S
C219        H231   1.083       .  S
C220        C221   1.349       .  D
C220        H232   1.083       .  S
C221        C222   1.492       .  S
C221        H233   1.084       .  S
C222        C223   1.404       .  A
C222        C227   1.410       .  A
C223        C224   1.398       .  A
C223        H234   1.084       .  S
C224        C225   1.406       .  A
C224        H235   1.083       .  S
C225        C226   1.406       .  A
C226        C227   1.400       .  A
C226        H236   1.083       .  S
C227        H237   1.080       .  S
C238        C239   1.407       .  A
C238        C243   1.406   1_565  A
C239        C240   1.402       .  A
C239        H252   1.083       .  S
C240        C241   1.406   1_565  A
C240        H253   1.083       .  S
C241        C242   1.408       .  A
C241        C244   1.493       .  S
C242        C243   1.397       .  A
C242        H254   1.081       .  S
C243        H255   1.083       .  S
C244        C245   1.351       .  D
C244        H256   1.085       .  S
C245        C246   1.491       .  S
C245        H257   1.084   1_545  S
C246        C247   1.405   1_545  A
C246        C251   1.409       .  A
C247        C248   1.397       .  A
C247        H258   1.083       .  S
C248        C249   1.403       .  A
C248        H259   1.083       .  S
C249        C250   1.405   1_565  A
C250        C251   1.402       .  A
C250        H260   1.083       .  S
C251        H261   1.081       .  S
