geometry optimzed in LAMMPS
_audit_creation_date              2020-12-01 
_audit_creation_method            'lammps2cif' 
_symmetry_space_group_name_H-M    'P1' 
_symmetry_Int_Tables_number       1 
_symmetry_cell_setting            triclinic 
loop_ 
_symmetry_equiv_pos_as_xyz 
  x,y,z 
_cell_length_a                    32.38766715 
_cell_length_b                    32.16954224178382 
_cell_length_c                    34.798492906666915 
_cell_angle_alpha                 89.27742228147493 
_cell_angle_beta                  89.73298250204951 
_cell_angle_gamma                 81.40009472646982 
loop_ 
_atom_site_label 
_atom_site_type_symbol 
_atom_site_fract_x 
_atom_site_fract_y 
_atom_site_fract_z 
_atom_site_charge 
N1          N  0.08068851  0.98950653  0.93028193    -0.06600
N2          N  0.10689424  0.00192399  0.90478697    -0.58700
N3          N  0.04321758  0.90337748  0.96071359    -0.06300
N4          N  0.04602458  0.86223391  0.95700213    -0.60800
N5          N  0.02203428  0.92287950  0.93191561    -0.05900
N6          N  0.01001088  0.89554484  0.90805981    -0.58700
N7          N  0.10149774  0.97029375  0.95944363    -0.05500
N8          N  0.14197545  0.96941605  0.95455760    -0.61200
C9          C  0.14504595  0.98936390  0.92051176     0.95600
C10         C  0.02504989  0.85785214  0.92407078     0.95400
N11         N  0.01370956  0.93101154  0.07578593    -0.06800
N12         N  0.99962265  0.90598234  0.10159442    -0.59300
N13         N  0.09658075  0.97596681  0.04964953    -0.04900
N14         N  0.13616805  0.97680230  0.05805798    -0.60500
N15         N  0.07204778  0.99869583  0.07417620    -0.06800
N16         N  0.09446369  0.01544115  0.09977934    -0.59500
N17         N  0.03852435  0.90877012  0.05114158    -0.04500
N18         N  0.04220657  0.86835674  0.05981384    -0.60600
Mn19       Mn  0.07082501  0.93880217  0.00529334     1.18400
C20         C  0.01763183  0.86696113  0.09117577     0.97700
C21         C  0.13444605  0.00171618  0.08928017     0.98300
N22         N  0.94351412  0.99305376  0.92457391    -0.06800
N23         N  0.92117853  0.97568374  0.89930005    -0.63100
N24         N  0.97631150  0.08302540  0.94735062    -0.05600
N25         N  0.97214124  0.12333874  0.93789441    -0.63800
N26         N  0.00152901  0.06067770  0.92306483    -0.06300
N27         N  0.01499108  0.08528198  0.89663671    -0.63400
N28         N  0.91881480  0.01508702  0.94945927    -0.05200
N29         N  0.87928991  0.01324603  0.94158726    -0.64100
Mn30       Mn  0.01210584  0.99157689  0.92629591     1.10700
C31         C  0.88113985  0.98840335  0.91033471     0.98900
C32         C  0.99657681  0.12433226  0.90629636     0.99000
N33         N  0.99350167  0.06997692  0.06632422    -0.06300
N34         N  0.00475715  0.09846006  0.08960209    -0.61700
N35         N  0.91366916  0.02091784  0.04036663    -0.05700
N36         N  0.87341234  0.02043906  0.04659294    -0.58400
N37         N  0.93582993  0.00201995  0.06889478    -0.07000
N38         N  0.91126772  0.98817368  0.09489309    -0.61300
N39         N  0.97148228  0.08848051  0.03752152    -0.05900
N40         N  0.96728065  0.12969456  0.04057240    -0.58500
Mn41       Mn  0.00372662  0.00059651  0.07245616     1.20200
Mn42       Mn  0.94402360  0.05265882  0.99361791     1.10100
Cl43       Cl  0.00768670  0.99594953  0.99941149    -0.86400
C44         C  0.98824937  0.13559578  0.07304744     0.95900
C45         C  0.87242173  0.99962447  0.08064119     0.95700
C46         C  0.98412732  0.53520097  0.26224243     0.79800
N47         N  0.98214466  0.49962366  0.24196006    -0.78500
C48         C  0.98503499  0.46167175  0.26027151     0.82200
N49         N  0.98940122  0.45980433  0.29905440    -0.78500
C50         C  0.99122549  0.49493583  0.31972860     0.82300
N51         N  0.98885943  0.53258693  0.30107502    -0.80200
C52         C  0.01417650  0.53624041  0.73474144     0.79800
N53         N  0.01131545  0.49985260  0.75400770    -0.78500
C54         C  0.01036924  0.46344121  0.73486833     0.82200
N55         N  0.01215935  0.46374807  0.69576925    -0.78500
C56         C  0.01507549  0.50001636  0.67601665     0.82300
N57         N  0.01608807  0.53600581  0.69578297    -0.80200
C58         C  0.46753876  0.01507336  0.26145853     0.79800
N59         N  0.46741716  0.01142084  0.30039471    -0.78500
C60         C  0.50354797  0.00915417  0.32076202     0.82200
N61         N  0.54021893  0.01039236  0.30159651    -0.78500
C62         C  0.54060081  0.01437713  0.26259154     0.82300
N63         N  0.50421313  0.01668569  0.24300441    -0.80200
C64         C  0.47520288  0.97730827  0.73483373     0.79800
N65         N  0.51073021  0.97379507  0.75602961    -0.78500
C66         C  0.54882664  0.96990889  0.73875309     0.82200
N67         N  0.55112077  0.96970626  0.69969755    -0.78500
C68         C  0.51589129  0.97312854  0.67800771     0.82300
N69         N  0.47809254  0.97691912  0.69585941    -0.80200
C70         C  0.51846842  0.97404181  0.63531644    -0.03700
C71         C  0.55732931  0.96945545  0.61641483    -0.06300
C72         C  0.55953810  0.97175472  0.57626276    -0.21400
C73         C  0.52307024  0.97894939  0.55393899     0.24400
C74         C  0.48414293  0.98250593  0.57284158    -0.18900
C75         C  0.48194350  0.98019928  0.61296412    -0.08900
C76         C  0.52720782  0.98155581  0.51122488    -0.19200
C77         C  0.49593765  0.99816829  0.48757425    -0.24000
C78         C  0.49957982  0.00031157  0.44487407     0.26400
C79         C  0.46277124  0.00522190  0.42309858    -0.20700
C80         C  0.46416997  0.00781346  0.38300534    -0.10400
C81         C  0.50251660  0.00598736  0.36347656    -0.10900
C82         C  0.53945561  0.00163813  0.38525194    -0.03800
C83         C  0.53805442  0.99886209  0.42548578    -0.19000
H84         H  0.58614551  0.96434678  0.63261347     0.10100
H85         H  0.58995326  0.96835526  0.56259205     0.10200
H86         H  0.45516541  0.98652381  0.55704857     0.09900
H87         H  0.45144676  0.98341423  0.62644241     0.11000
H88         H  0.55745448  0.96944772  0.49910264     0.11100
H89         H  0.46568573  0.01033605  0.49958016     0.13000
H90         H  0.43268214  0.00681609  0.43718071     0.09500
H91         H  0.43500702  0.01143693  0.36735792     0.11600
H92         H  0.56951711  0.00051772  0.37124632     0.08200
H93         H  0.56710329  0.99639856  0.44111015     0.10900
C94         C  0.99494133  0.49194487  0.36220981    -0.03700
C95         C  0.99282801  0.45355669  0.38139245    -0.06300
C96         C  0.99504916  0.45070775  0.42142783    -0.21400
C97         C  0.99993808  0.48591452  0.44334069     0.24400
C98         C  0.00209757  0.52441668  0.42424009    -0.18900
C99         C  0.99968923  0.52733119  0.38411657    -0.08900
C100        C  0.00075448  0.48143035  0.48594411    -0.19200
C101        C  0.01775961  0.50727815  0.50931932    -0.24000
C102        C  0.01733736  0.50378790  0.55199575     0.26400
C103        C  0.02225164  0.53939464  0.57333815    -0.20700
C104        C  0.02162276  0.53807438  0.61345662    -0.10400
C105        C  0.01645855  0.50085201  0.63335522    -0.10900
C106        C  0.01234641  0.46486612  0.61203932    -0.03800
C107        C  0.01285241  0.46623708  0.57180177    -0.19000
H108        H  0.98896492  0.42565107  0.36554235     0.10900
H109        H  0.99295031  0.42078481  0.43536452     0.10200
H110        H  0.00454349  0.55266369  0.44003397     0.09900
H111        H  0.00115706  0.55743535  0.37031822     0.11000
H112        H  0.98680296  0.45562377  0.49816854     0.11100
H113        H  0.03180625  0.53297507  0.49697827     0.13000
H114        H  0.02611222  0.56860348  0.55888682     0.09500
H115        H  0.02512330  0.56638533  0.62882973     0.11600
H116        H  0.00865533  0.43558958  0.62640909     0.08200
H117        H  0.01032962  0.43766583  0.55656002     0.10900
C118        C  0.00691827  0.42415719  0.75676181    -0.03700
C119        C  0.00559145  0.42455526  0.79715479    -0.06300
C120        C  0.00183078  0.38808099  0.81815517    -0.21400
C121        C  0.99970305  0.35008591  0.79951736     0.24400
C122        C  0.00077093  0.34948340  0.75904716    -0.18900
C123        C  0.00443218  0.38616589  0.73791633    -0.08900
C124        C  0.99530081  0.31245966  0.82359976    -0.19200
C125        C  0.00627494  0.27251694  0.81199907    -0.24000
C126        C  0.00367533  0.23526547  0.83730982     0.26400
C127        C  0.02806968  0.19677223  0.82826025    -0.20700
C128        C  0.02630850  0.16090490  0.85100996    -0.10400
C129        C  0.99990016  0.16270173  0.88326949    -0.10900
C130        C  0.97543665  0.20111273  0.89240877    -0.03800
C131        C  0.97704806  0.23694482  0.86958698    -0.19000
H132        H  0.00733608  0.45314904  0.81275303     0.10100
H133        H  0.00082727  0.38953926  0.84924175     0.10200
H134        H  0.99804420  0.32109483  0.74355397     0.09900
H135        H  0.00500662  0.38479594  0.70683897     0.11000
H136        H  0.98509279  0.31829732  0.85302240     0.11100
H137        H  0.01999042  0.26666804  0.78370843     0.13000
H138        H  0.04865579  0.19444478  0.80350359     0.09500
H139        H  0.04543548  0.13167964  0.84316517     0.11600
H140        H  0.95442867  0.20333148  0.91684685     0.08200
H141        H  0.95665760  0.26548322  0.87698921     0.10900
C142        C  0.01439856  0.57591096  0.75592118    -0.03700
C143        C  0.02150832  0.61269219  0.73641303    -0.06300
C144        C  0.02103719  0.65023847  0.75621993    -0.21400
C145        C  0.01348855  0.65207043  0.79596713     0.24400
C146        C  0.00608617  0.61528894  0.81553762    -0.18900
C147        C  0.00678952  0.57763254  0.79572693    -0.08900
C148        C  0.01286920  0.69317912  0.81525708    -0.19200
C149        C  0.01366582  0.69818810  0.85363563    -0.24000
C150        C  0.01483965  0.73961846  0.87164921     0.26400
C151        C  0.03249085  0.74077064  0.90832156    -0.20700
C152        C  0.03560693  0.77918154  0.92559519    -0.10400
C153        C  0.02061730  0.81717787  0.90665644    -0.10900
C154        C  0.00173329  0.81610428  0.87052107    -0.03800
C155        C  0.99870146  0.77776196  0.85322210    -0.19000
H156        H  0.02745616  0.61256759  0.70576497     0.10100
H157        H  0.02664068  0.67804433  0.74033027     0.10200
H158        H  0.99907562  0.61524426  0.84590581     0.09900
H159        H  0.00080379  0.54997099  0.81160218     0.11000
H160        H  0.01376648  0.72031990  0.79661416     0.11100
H161        H  0.01628607  0.67104293  0.87269655     0.13000
H162        H  0.04465000  0.71185429  0.92333431     0.09500
H163        H  0.04999522  0.77912598  0.95362874     0.11600
H164        H  0.98947875  0.84494405  0.85544458     0.08200
H165        H  0.98338669  0.77826878  0.82563580     0.10900
C166        C  0.98952224  0.17743642  0.08971101    -0.03700
C167        C  0.96540837  0.21323819  0.07344946    -0.06300
C168        C  0.96452012  0.25265367  0.09007150    -0.21400
C169        C  0.98744797  0.25712834  0.12343387     0.24400
C170        C  0.01269956  0.22151196  0.13906297    -0.18900
C171        C  0.01357365  0.18199941  0.12241213    -0.08900
C172        C  0.98462979  0.29939001  0.14086283    -0.19200
C173        C  0.98881935  0.30470437  0.17889508    -0.24000
C174        C  0.98594267  0.34614863  0.19817682     0.26400
C175        C  0.98697010  0.34627903  0.23846609    -0.20700
C176        C  0.98617100  0.38372821  0.25840256    -0.10400
C177        C  0.98426587  0.42232578  0.23858473    -0.10900
C178        C  0.98263716  0.42249120  0.19821810    -0.03800
C179        C  0.98356029  0.38484237  0.17816308    -0.19000
H180        H  0.94661226  0.21072756  0.04816115     0.10100
H181        H  0.94517402  0.27961699  0.07726969     0.10200
H182        H  0.03200623  0.22406993  0.16396646     0.09900
H183        H  0.03287163  0.15502888  0.13521834     0.11000
H184        H  0.97657227  0.32632864  0.12192361     0.11100
H185        H  0.99377668  0.27697962  0.19739534     0.13000
H186        H  0.98880765  0.31711752  0.25472826     0.09500
H187        H  0.98740074  0.38223536  0.28948796     0.11600
H188        H  0.98124607  0.45164108  0.18204073     0.08200
H189        H  0.98313899  0.38650718  0.14715990     0.10900
C190        C  0.01419243  0.82789204  0.11300833    -0.03700
C191        C  0.04581378  0.79310951  0.10979561    -0.06300
C192        C  0.04411142  0.75659038  0.13150245    -0.21400
C193        C  0.01008436  0.75353103  0.15583191     0.24400
C194        C  0.97792909  0.78795516  0.15863829    -0.18900
C195        C  0.98024451  0.82510245  0.13771683    -0.08900
C196        C  0.00999808  0.71473549  0.17915922    -0.19200
C197        C  0.97602215  0.69560253  0.18312734    -0.24000
C198        C  0.97766138  0.65492304  0.20406681     0.26400
C199        C  0.95646204  0.62364154  0.18936083    -0.20700
C200        C  0.95890604  0.58448979  0.20797469    -0.10400
C201        C  0.98152513  0.57645126  0.24232128    -0.10900
C202        C  0.00167329  0.60828270  0.25763222    -0.03800
C203        C  0.00011551  0.64698517  0.23850707    -0.19000
H204        H  0.07245798  0.79448161  0.09114284     0.10100
H205        H  0.06930021  0.73049595  0.12909900     0.10200
H206        H  0.95164823  0.78647944  0.17770494     0.09900
H207        H  0.95551703  0.85152452  0.14071696     0.11000
H208        H  0.03968881  0.69953259  0.19062134     0.11100
H209        H  0.94748199  0.70824633  0.16807921     0.13000
H210        H  0.93875408  0.62921171  0.16298945     0.09500
H211        H  0.94273873  0.56066301  0.19574659     0.11600
H212        H  0.01924962  0.60299803  0.28409421     0.08200
H213        H  0.01612727  0.67086069  0.25084414     0.10900
C214        C  0.84395431  0.97948057  0.88905088    -0.03700
C215        C  0.84839082  0.95553914  0.85541213    -0.06300
C216        C  0.81327858  0.94949247  0.83405696    -0.21400
C217        C  0.77293039  0.96692211  0.84594452     0.24400
C218        C  0.76852521  0.99052161  0.87993981    -0.18900
C219        C  0.80363025  0.99653808  0.90127161    -0.08900
C220        C  0.73673816  0.96208965  0.82089396    -0.19200
C221        C  0.69672175  0.96745229  0.83316929    -0.24000
C222        C  0.66005186  0.96564244  0.80777703     0.26400
C223        C  0.62142562  0.96177437  0.82488243    -0.20700
C224        C  0.58553539  0.96251264  0.80251762    -0.10400
C225        C  0.58731904  0.96724389  0.76233739    -0.10900
C226        C  0.62604356  0.97066190  0.74510302    -0.03800
C227        C  0.66192725  0.97012676  0.76750244    -0.19000
H228        H  0.87906645  0.94207154  0.84520252     0.10100
H229        H  0.81770031  0.93146161  0.80788567     0.10200
H230        H  0.73828244  0.00563224  0.88964792     0.09900
H231        H  0.79921409  0.01540285  0.92693540     0.11000
H232        H  0.74378945  0.95305847  0.79139563     0.11100
H233        H  0.69015968  0.97282662  0.86344548     0.13000
H234        H  0.61889170  0.95855458  0.85579868     0.09500
H235        H  0.55629838  0.95971195  0.81682859     0.11600
H236        H  0.62852842  0.97473071  0.71428349     0.08200
H237        H  0.69061047  0.97446079  0.75306159     0.10900
C238        C  0.18547620  0.99269834  0.90163892    -0.03700
C239        C  0.22290001  0.97795513  0.92093588    -0.06300
C240        C  0.26137190  0.97863376  0.90292769    -0.21400
C241        C  0.26350049  0.99371476  0.86508293     0.24400
C242        C  0.22602639  0.00945340  0.84594586    -0.18900
C243        C  0.18736849  0.00885355  0.86409818    -0.08900
C244        C  0.30549295  0.99284869  0.84727739    -0.19200
C245        C  0.31243895  0.99328939  0.80903287    -0.24000
C246        C  0.35475169  0.99004342  0.79103671     0.26400
C247        C  0.35832673  0.98388111  0.75118747    -0.20700
C248        C  0.39724593  0.97999879  0.73288383    -0.10400
C249        C  0.43373889  0.98203051  0.75405051    -0.10900
C250        C  0.43020859  0.98877896  0.79382830    -0.03800
C251        C  0.39127759  0.99300503  0.81209061    -0.19000
H252        H  0.22251843  0.96543027  0.94994992     0.10100
H253        H  0.28964568  0.96668023  0.91849801     0.10200
H254        H  0.22628660  0.02257630  0.81720944     0.09900
H255        H  0.15899729  0.02064772  0.84864433     0.11000
H256        H  0.33164225  0.98912914  0.86691093     0.11100
H257        H  0.28615922  0.99411305  0.78968704     0.13000
H258        H  0.33086665  0.98176196  0.73408883     0.09500
H259        H  0.39872018  0.97500672  0.70216254     0.11600
H260        H  0.45757858  0.99108527  0.81097050     0.08200
H261        H  0.39042311  0.99889507  0.84256742     0.10900
C262        C  0.57974555  0.01665670  0.24089462    -0.03700
C263        C  0.57767543  0.03528037  0.20404883    -0.06300
C264        C  0.61376547  0.03619034  0.18221953    -0.21400
C265        C  0.65283175  0.01779402  0.19621595     0.24400
C266        C  0.65526972  0.99989470  0.23349211    -0.18900
C267        C  0.61900923  0.99952391  0.25569157    -0.08900
C268        C  0.68997387  0.01878074  0.17108527    -0.19200
C269        C  0.72495926  0.99035888  0.17324782    -0.24000
C270        C  0.76172205  0.99125030  0.14751871     0.26400
C271        C  0.80103227  0.97194358  0.16033092    -0.20700
C272        C  0.83675345  0.97364787  0.13803285    -0.10400
C273        C  0.83394038  0.99441196  0.10216191    -0.10900
C274        C  0.79441769  0.01198858  0.08835658    -0.03800
C275        C  0.75860556  0.01039017  0.11075008    -0.19000
H276        H  0.54799259  0.04924925  0.19194850     0.10100
H277        H  0.61102281  0.05065947  0.15387898     0.10200
H278        H  0.68501645  0.98656312  0.24575413     0.09900
H279        H  0.62159174  0.98515422  0.28405835     0.11000
H280        H  0.68755311  0.04333637  0.14920512     0.11100
H281        H  0.72740691  0.96588679  0.19522539     0.13000
H282        H  0.80429032  0.95640637  0.18818793     0.09500
H283        H  0.86674088  0.95942475  0.14931116     0.11600
H284        H  0.79124743  0.02769285  0.06058613     0.08200
H285        H  0.72871396  0.02410254  0.09905957     0.10900
C286        C  0.42844089  0.01698058  0.23888996    -0.03700
C287        C  0.42958150  0.02108597  0.19863004    -0.06300
C288        C  0.39344351  0.02168701  0.17684498    -0.21400
C289        C  0.35504755  0.01848100  0.19454825     0.24400
C290        C  0.35361974  0.01461099  0.23491189    -0.18900
C291        C  0.38996047  0.01397439  0.25682351    -0.08900
C292        C  0.31823629  0.01685253  0.16942853    -0.19200
C293        C  0.27820017  0.02353929  0.18148431    -0.24000
C294        C  0.24215336  0.01959446  0.15595583     0.26400
C295        C  0.20201404  0.03871924  0.16681780    -0.20700
C296        C  0.16707866  0.03382414  0.14470708    -0.10400
C297        C  0.17152807  0.00943830  0.11131587    -0.10900
C298        C  0.21165122  0.99068875  0.10014298    -0.03800
C299        C  0.24653463  0.99546300  0.12225198    -0.19000
H300        H  0.45855665  0.02346904  0.18370045     0.10100
H301        H  0.39560135  0.02441278  0.14586000     0.10200
H302        H  0.32493222  0.01096308  0.24969568     0.09900
H303        H  0.38798472  0.01053387  0.28774470     0.11000
H304        H  0.32478752  0.01089116  0.13924428     0.11100
H305        H  0.27117668  0.03318632  0.21084123     0.13000
H306        H  0.19761299  0.05721854  0.19271440     0.09500
H307        H  0.13651246  0.04857493  0.15410966     0.11600
H308        H  0.21603793  0.97141978  0.07472864     0.08200
H309        H  0.27651943  0.97898793  0.11333056     0.10900
loop_ 
_geom_bond_atom_site_label_1 
_geom_bond_atom_site_label_2 
_geom_bond_distance 
_geom_bond_site_symmetry_2 
_ccdc_geom_bond_type 
N1            N2   1.324   1_565  A
N1            N7   1.316       .  A
N1          Mn30   2.217       .  S
N2            C9   1.357   1_545  A
N3            N5   1.315       .  A
N3            N4   1.321       .  A
N3          Mn19   2.206   1_556  S
N4           C10   1.354       .  A
N5            N6   1.318       .  A
N5          Mn30   2.192       .  S
N6           C10   1.352       .  A
N7            N8   1.317       .  A
N7          Mn19   2.192   1_556  S
N8            C9   1.351       .  A
C9          C238   1.480       .  S
C10         C153   1.475       .  S
N11          N17   1.315       .  A
N11          N12   1.323   1_455  A
N11         Mn41   2.215   1_565  S
N12          C20   1.356   1_655  A
N13          N14   1.321       .  A
N13          N15   1.315       .  A
N13         Mn19   2.206       .  S
N14          C21   1.354   1_565  A
N15          N16   1.321   1_565  A
N15         Mn41   2.206   1_565  S
N16          C21   1.354       .  A
N17          N18   1.319       .  A
N17         Mn19   2.196       .  S
N18          C20   1.352       .  A
Mn19        Cl43   2.544   1_554  S
C20         C190   1.479       .  S
C21         C297   1.481       .  S
N22          N23   1.322       .  A
N22          N28   1.316   1_565  A
N22         Mn30   2.216   1_655  S
N23          C31   1.355       .  A
N24          N26   1.316   1_655  A
N24          N25   1.321       .  A
N24         Mn42   2.211       .  S
N25          C32   1.355       .  A
N26          N27   1.320       .  A
N26         Mn30   2.199   1_545  S
N27          C32   1.353   1_455  A
N28          N29   1.320       .  A
N28         Mn42   2.201       .  S
N29          C31   1.354   1_545  A
Mn30        Cl43   2.552       .  S
C31         C214   1.483       .  S
C32         C129   1.480       .  S
N33          N34   1.323   1_655  A
N33          N39   1.316       .  A
N33         Mn41   2.215   1_655  S
N34          C44   1.356   1_455  A
N35          N36   1.323       .  A
N35          N37   1.316       .  A
N35         Mn42   2.213   1_554  S
N36          C45   1.356   1_545  A
N37          N38   1.319   1_545  A
N37         Mn41   2.197   1_655  S
N38          C45   1.352       .  A
N39          N40   1.318       .  A
N39         Mn42   2.195   1_554  S
N40          C44   1.351       .  A
Mn41        Cl43   2.550   1_544  S
Mn42        Cl43   2.548   1_645  S
C44         C166   1.479       .  S
C45         C273   1.481       .  S
C46          N47   1.362       .  A
C46          N51   1.361       .  A
C46         C201   1.481       .  S
N47          C48   1.361       .  A
C48          N49   1.357       .  A
C48         C177   1.485       .  S
N49          C50   1.356       .  A
C50          N51   1.359       .  A
C50          C94   1.484       .  S
C52          N53   1.357       .  A
C52          N57   1.357       .  A
C52         C142   1.483       .  S
N53          C54   1.359       .  A
C54          N55   1.362       .  A
C54         C118   1.486       .  S
N55          C56   1.362       .  A
C56          N57   1.359       .  A
C56         C105   1.485       .  S
C58          N59   1.359       .  A
C58          N63   1.355       .  A
C58         C286   1.486       .  S
N59          C60   1.363       .  A
C60          N61   1.365       .  A
C60          C81   1.489       .  S
N61          C62   1.362       .  A
C62          N63   1.356       .  A
C62         C262   1.483       .  S
C64          N65   1.359       .  A
C64          N69   1.359       .  A
C64         C249   1.486       .  S
N65          C66   1.360       .  A
C66          N67   1.361       .  A
C66         C225   1.487       .  S
N67          C68   1.361       .  A
C68          N69   1.360       .  A
C68          C70   1.488       .  S
C70          C71   1.406       .  A
C70          C75   1.407       .  A
C71          C72   1.400       .  A
C71          H84   1.083       .  S
C72          C73   1.405       .  A
C72          H85   1.083       .  S
C73          C74   1.409       .  A
C73          C76   1.494       .  S
C74          C75   1.399       .  A
C74          H86   1.080       .  S
C75          H87   1.083       .  S
C76          C77   1.350       .  D
C76          H88   1.084       .  S
C77          C78   1.492   1_565  S
C77          H89   1.083   1_565  S
C78          C79   1.403       .  A
C78          C83   1.409   1_545  A
C79          C80   1.398       .  A
C79          H90   1.083       .  S
C80          C81   1.407       .  A
C80          H91   1.083       .  S
C81          C82   1.407       .  A
C82          C83   1.403   1_545  A
C82          H92   1.083       .  S
C83          H93   1.081       .  S
C94          C95   1.407       .  A
C94          C99   1.406       .  A
C95          C96   1.397       .  A
C95         H108   1.083       .  S
C96          C97   1.402       .  A
C96         H109   1.083       .  S
C97          C98   1.409   1_655  A
C97         C100   1.488   1_655  S
C98          C99   1.400   1_455  A
C98         H110   1.081       .  S
C99         H111   1.083   1_655  S
C100        C101   1.347       .  D
C100        H112   1.084   1_455  S
C101        C102   1.488       .  S
C101        H113   1.085       .  S
C102        C103   1.402       .  A
C102        C107   1.409       .  A
C103        C104   1.396       .  A
C103        H114   1.084       .  S
C104        C105   1.407       .  A
C104        H115   1.083       .  S
C105        C106   1.406       .  A
C106        C107   1.400       .  A
C106        H116   1.083       .  S
C107        H117   1.081       .  S
C118        C119   1.406       .  A
C118        C123   1.407       .  A
C119        C120   1.395       .  A
C119        H132   1.083       .  S
C120        C121   1.402   1_455  A
C120        H133   1.083       .  S
C121        C122   1.409   1_655  A
C121        C124   1.487       .  S
C122        C123   1.402       .  A
C122        H134   1.081   1_455  S
C123        H135   1.083       .  S
C124        C125   1.347   1_655  D
C124        H136   1.084       .  S
C125        C126   1.491       .  S
C125        H137   1.085       .  S
C126        C127   1.404       .  A
C126        C131   1.410   1_455  A
C127        C128   1.399       .  A
C127        H138   1.083       .  S
C128        C129   1.405   1_455  A
C128        H139   1.083       .  S
C129        C130   1.404       .  A
C130        C131   1.399       .  A
C130        H140   1.083       .  S
C131        H141   1.081       .  S
C142        C143   1.405       .  A
C142        C147   1.406       .  A
C143        C144   1.396       .  A
C143        H156   1.083       .  S
C144        C145   1.404       .  A
C144        H157   1.083       .  S
C145        C146   1.409       .  A
C145        C148   1.488       .  S
C146        C147   1.399       .  A
C146        H158   1.080   1_455  S
C147        H159   1.083       .  S
C148        C149   1.348       .  D
C148        H160   1.085       .  S
C149        C150   1.486       .  S
C149        H161   1.083       .  S
C150        C151   1.404       .  A
C150        C155   1.408   1_455  A
C151        C152   1.398       .  A
C151        H162   1.083       .  S
C152        C153   1.403       .  A
C152        H163   1.083       .  S
C153        C154   1.404       .  A
C154        C155   1.396   1_455  A
C154        H164   1.083   1_455  S
C155        H165   1.081       .  S
C166        C167   1.405       .  A
C166        C171   1.404   1_655  A
C167        C168   1.397       .  A
C167        H180   1.083       .  S
C168        C169   1.401       .  A
C168        H181   1.083       .  S
C169        C170   1.409   1_655  A
C169        C172   1.486       .  S
C170        C171   1.400       .  A
C170        H182   1.082       .  S
C171        H183   1.083       .  S
C172        C173   1.347       .  D
C172        H184   1.083       .  S
C173        C174   1.490       .  S
C173        H185   1.086       .  S
C174        C175   1.403       .  A
C174        C179   1.411       .  A
C175        C176   1.395       .  A
C175        H186   1.084       .  S
C176        C177   1.406       .  A
C176        H187   1.083       .  S
C177        C178   1.406       .  A
C178        C179   1.402       .  A
C178        H188   1.083       .  S
C179        H189   1.080       .  S
C190        C191   1.405       .  A
C190        C195   1.405   1_455  A
C191        C192   1.397       .  A
C191        H204   1.083       .  S
C192        C193   1.401       .  A
C192        H205   1.083       .  S
C193        C194   1.406   1_455  A
C193        C196   1.481       .  S
C194        C195   1.403       .  A
C194        H206   1.083       .  S
C195        H207   1.083       .  S
C196        C197   1.345   1_455  D
C196        H208   1.087       .  S
C197        C198   1.484       .  S
C197        H209   1.087       .  S
C198        C199   1.403       .  A
C198        C203   1.405   1_655  A
C199        C200   1.401       .  A
C199        H210   1.083       .  S
C200        C201   1.406       .  A
C200        H211   1.083       .  S
C201        C202   1.405   1_655  A
C202        C203   1.399       .  A
C202        H212   1.083       .  S
C203        H213   1.083       .  S
C214        C215   1.404       .  A
C214        C219   1.405       .  A
C215        C216   1.400       .  A
C215        H228   1.083       .  S
C216        C217   1.405       .  A
C216        H229   1.083       .  S
C217        C218   1.409       .  A
C217        C220   1.492       .  S
C218        C219   1.399       .  A
C218        H230   1.081   1_565  S
C219        H231   1.083   1_565  S
C220        C221   1.350       .  D
C220        H232   1.084       .  S
C221        C222   1.492       .  S
C221        H233   1.085       .  S
C222        C223   1.404       .  A
C222        C227   1.409       .  A
C223        C224   1.399       .  A
C223        H234   1.083       .  S
C224        C225   1.406       .  A
C224        H235   1.083       .  S
C225        C226   1.406       .  A
C226        C227   1.400       .  A
C226        H236   1.083       .  S
C227        H237   1.081       .  S
C238        C239   1.404       .  A
C238        C243   1.404   1_565  A
C239        C240   1.395       .  A
C239        H252   1.083       .  S
C240        C241   1.403       .  A
C240        H253   1.084       .  S
C241        C242   1.410   1_565  A
C241        C244   1.489       .  S
C242        C243   1.402       .  A
C242        H254   1.081       .  S
C243        H255   1.083       .  S
C244        C245   1.349       .  D
C244        H256   1.082       .  S
C245        C246   1.494       .  S
C245        H257   1.085       .  S
C246        C247   1.405       .  A
C246        C251   1.410       .  A
C247        C248   1.399       .  A
C247        H258   1.083       .  S
C248        C249   1.406       .  A
C248        H259   1.083       .  S
C249        C250   1.405       .  A
C250        C251   1.398       .  A
C250        H260   1.083       .  S
C251        H261   1.079       .  S
C262        C263   1.406       .  A
C262        C267   1.405   1_545  A
C263        C264   1.395       .  A
C263        H276   1.083       .  S
C264        C265   1.401       .  A
C264        H277   1.084       .  S
C265        C266   1.410   1_545  A
C265        C268   1.488       .  S
C266        C267   1.404       .  A
C266        H278   1.082       .  S
C267        H279   1.083       .  S
C268        C269   1.347   1_545  D
C268        H280   1.085       .  S
C269        C270   1.490       .  S
C269        H281   1.085       .  S
C270        C271   1.403       .  A
C270        C275   1.410   1_565  A
C271        C272   1.398       .  A
C271        H282   1.083       .  S
C272        C273   1.405       .  A
C272        H283   1.083       .  S
C273        C274   1.404   1_565  A
C274        C275   1.401       .  A
C274        H284   1.083       .  S
C275        H285   1.081       .  S
C286        C287   1.406       .  A
C286        C291   1.407       .  A
C287        C288   1.395       .  A
C287        H300   1.083       .  S
C288        C289   1.402       .  A
C288        H301   1.083       .  S
C289        C290   1.410       .  A
C289        C292   1.489       .  S
C290        C291   1.403       .  A
C290        H302   1.081       .  S
C291        H303   1.083       .  S
C292        C293   1.348       .  D
C292        H304   1.084       .  S
C293        C294   1.492       .  S
C293        H305   1.085       .  S
C294        C295   1.405       .  A
C294        C299   1.410   1_545  A
C295        C296   1.401       .  A
C295        H306   1.083       .  S
C296        C297   1.405       .  A
C296        H307   1.083       .  S
C297        C298   1.404   1_545  A
C298        C299   1.398       .  A
C298        H308   1.083       .  S
C299        H309   1.081       .  S
