geometry optimzed in LAMMPS
_audit_creation_date              2020-12-01 
_audit_creation_method            'lammps2cif' 
_symmetry_space_group_name_H-M    'P1' 
_symmetry_Int_Tables_number       1 
_symmetry_cell_setting            triclinic 
loop_ 
_symmetry_equiv_pos_as_xyz 
  x,y,z 
_cell_length_a                    28.39135156 
_cell_length_b                    28.408022339249946 
_cell_length_c                    54.3318565004964 
_cell_angle_alpha                 90.026359123686 
_cell_angle_beta                  89.75808205077551 
_cell_angle_gamma                 90.1425797998006 
loop_ 
_atom_site_label 
_atom_site_type_symbol 
_atom_site_fract_x 
_atom_site_fract_y 
_atom_site_fract_z 
_atom_site_charge 
N1          N  0.07419549  0.99582424  0.07839822    -0.27100
N2          N  0.09703184  0.99012731  0.09937636    -0.35000
C3          C  0.14371012  0.98981431  0.09474101     0.01200
C4          C  0.15076263  0.99639279  0.06972087     0.07200
C5          C  0.10588055  0.00025529  0.05997540    -0.05900
H6          H  0.17061667  0.98625515  0.10865412     0.07900
H7          H  0.09690416  0.00523556  0.04082337     0.09100
Cu8        Cu  0.06386896  0.98676058  0.13371433     0.44200
Cu9        Cu  0.00064218  0.99630303  0.07570465     0.42000
Cu10       Cu  0.93914495  0.01435606  0.13310881     0.43900
N11         N  0.02279655  0.99377831  0.16545989    -0.34500
N12         N  0.97820071  0.00720163  0.16513623    -0.28800
C13         C  0.96232132  0.01102164  0.18843164    -0.04900
C14         C  0.99830943  0.99851599  0.20413170     0.07400
C15         C  0.03608638  0.98759555  0.18901851     0.01100
H16         H  0.92672035  0.02055422  0.19351915     0.08800
H17         H  0.07083727  0.97667243  0.19473103     0.07900
N18         N  0.90496876  0.00673217  0.09958071    -0.36000
N19         N  0.92709905  0.99776219  0.07863732    -0.28100
C20         C  0.89477242  0.99158870  0.06078114    -0.03400
C21         C  0.85023259  0.99764000  0.07092911     0.05200
C22         C  0.85822454  0.00732382  0.09555157     0.03300
H23         H  0.90309112  0.98443873  0.04169437     0.08400
H24         H  0.83191246  0.01368587  0.10961915     0.07300
N25         N  0.00761559  0.06693268  0.35605426    -0.27100
N26         N  0.99028954  0.08741411  0.33620404    -0.35000
C27         C  0.98441700  0.13352931  0.34080903     0.01200
C28         C  0.99895825  0.14268378  0.36464948     0.07200
C29         C  0.01346829  0.09956376  0.37373135    -0.05900
H30         H  0.97175011  0.15871806  0.32747614     0.07900
H31         H  0.02693706  0.09222041  0.39191896     0.09100
Cu32       Cu  0.97930977  0.05356145  0.30279513     0.44200
Cu33       Cu  0.02200008  0.99554185  0.35871075     0.42000
Cu34       Cu  0.01584963  0.93295712  0.30114107     0.43900
N35         N  0.98679188  0.01574108  0.27028620    -0.34500
N36         N  0.00385777  0.97249772  0.26965831    -0.28800
C37         C  0.01070048  0.95973655  0.24604978    -0.04900
C38         C  0.99634499  0.99638355  0.23115154     0.07400
C39         C  0.98109700  0.03121746  0.24706734     0.01100
H40         H  0.02470398  0.92616009  0.24017775     0.08800
H41         H  0.96881654  0.06597811  0.24216468     0.07900
N42         N  0.02157021  0.90000106  0.33510200    -0.36000
N43         N  0.02567699  0.92277367  0.35621191    -0.28100
C44         C  0.02742825  0.89127057  0.37471247    -0.03400
C45         C  0.02343585  0.84658584  0.36473138     0.05200
C46         C  0.01971920  0.85352453  0.33960857     0.03300
H47         H  0.02898472  0.90031017  0.39403977     0.08400
H48         H  0.01524398  0.82676714  0.32563169     0.07300
C49         C  0.98848465  0.53834854  0.47793424     0.02500
C50         C  0.99679411  0.53802527  0.45218164     0.02400
C51         C  0.99933451  0.49484274  0.43973144    -0.18100
C52         C  0.99600886  0.45193826  0.45243482     0.02500
C53         C  0.98937858  0.45218669  0.47830488     0.02400
C54         C  0.98543661  0.49538757  0.49064643    -0.18100
H55         H  0.97937099  0.49550233  0.51036392     0.04500
H56         H  0.00544762  0.49459113  0.42001528     0.04500
N57         N  0.93092335  0.99257255  0.85329186    -0.27100
N58         N  0.90860694  0.98201717  0.83268106    -0.35000
C59         C  0.86201871  0.97999097  0.83731056     0.01200
C60         C  0.85444151  0.99024307  0.86196313     0.07200
C61         C  0.89902912  0.99806643  0.87148119    -0.05900
H62         H  0.83549455  0.97324211  0.82350829     0.07900
H63         H  0.90773674  0.00715447  0.89025840     0.09100
Cu64       Cu  0.94176412  0.97576358  0.79854438     0.44200
Cu65       Cu  0.00377395  0.00021603  0.85571875     0.42000
Cu66       Cu  0.06445813  0.01177836  0.79766923     0.43900
N67         N  0.98112880  0.98400133  0.76636666    -0.34500
N68         N  0.02489332  0.00013460  0.76615257    -0.28800
C69         C  0.03906213  0.00592271  0.74268231    -0.04900
C70         C  0.00284460  0.99203193  0.72741644     0.07400
C71         C  0.96670807  0.97806598  0.74296529     0.01100
H72         H  0.07346134  0.01861933  0.73715141     0.08800
H73         H  0.93202637  0.96599199  0.73767624     0.07900
N74         N  0.09858338  0.01404222  0.83141297    -0.36000
N75         N  0.07656732  0.00795896  0.85267348    -0.28100
C76         C  0.10868561  0.00703127  0.87082789    -0.03400
C77         C  0.15300334  0.01340957  0.86053795     0.05200
C78         C  0.14518731  0.01792130  0.83551267     0.03300
H79         H  0.10042010  0.00179566  0.89009270     0.08400
H80         H  0.17159175  0.02171245  0.82122937     0.07300
N81         N  0.97916991  0.92365615  0.57447797    -0.27100
N82         N  0.98377953  0.90026651  0.59533774    -0.35000
C83         C  0.98552078  0.85398629  0.59043976     0.01200
C84         C  0.98135994  0.84779123  0.56527820     0.07200
C85         C  0.97713345  0.89275698  0.55571090    -0.05900
H86         H  0.98952353  0.82686369  0.60423852     0.07900
H87         H  0.97453841  0.90242017  0.53650570     0.09100
Cu88       Cu  0.98858056  0.93205133  0.62952971     0.44200
Cu89       Cu  0.98101602  0.99644082  0.57278844     0.42000
Cu90       Cu  0.01716704  0.05553421  0.62963314     0.43900
N91         N  0.99686707  0.97091472  0.66147221    -0.34500
N92         N  0.01046713  0.01547127  0.66161037    -0.28800
C93         C  0.01509836  0.02974275  0.68512381    -0.04900
C94         C  0.00283524  0.99264241  0.70037405     0.07400
C95         C  0.99129673  0.95598615  0.68481098     0.01100
H96         H  0.02536089  0.06484611  0.69070320     0.08800
H97         H  0.98064325  0.92078076  0.69003740     0.07900
N98         N  0.00872977  0.08931084  0.59586717    -0.36000
N99         N  0.99360652  0.06807579  0.57570432    -0.28100
C100        C  0.98838899  0.10019728  0.55777390    -0.03400
C101        C  0.00103552  0.14387321  0.56694525     0.05200
C102        C  0.01393522  0.13556157  0.59114601     0.03300
H103        H  0.97633287  0.09217728  0.53938003     0.08400
H104        H  0.02466887  0.16144943  0.60462366     0.07300
C105        C  0.54512388  0.00564173  0.97838548     0.02500
C106        C  0.54589264  0.00802847  0.95224983     0.02400
C107        C  0.50284914  0.00980242  0.93946099    -0.18100
C108        C  0.45915998  0.00929599  0.95180861     0.02500
C109        C  0.45843394  0.00846183  0.97796725     0.02400
C110        C  0.50144918  0.00658889  0.99075305    -0.18100
H111        H  0.50092038  0.00535521  0.01069676     0.04500
H112        H  0.50332898  0.01097200  0.91951892     0.04500
C113        C  0.30104812  0.94272173  0.93528111    -0.17700
C114        C  0.25772609  0.94439168  0.92314921    -0.19800
C115        C  0.24985405  0.97763251  0.90452469     0.20800
C116        C  0.28612928  0.00933462  0.89793169    -0.02800
C117        C  0.32957322  0.00827031  0.91054603    -0.05800
C118        C  0.33703639  0.97467456  0.92924310     0.21100
C119        C  0.36534220  0.04096777  0.90457638     0.19300
C120        C  0.35773313  0.07367349  0.88563133    -0.17300
C121        C  0.31502960  0.07411009  0.87278848    -0.19500
C122        C  0.27889552  0.04227295  0.87886922     0.20700
C123        C  0.23557788  0.04293123  0.86639121    -0.32500
C124        C  0.19895119  0.01215323  0.87331049     0.01400
C125        C  0.20631589  0.97976066  0.89244107    -0.23900
C126        C  0.38006712  0.97399658  0.94182373    -0.28400
C127        C  0.41507968  0.00789625  0.93688701     0.07100
C128        C  0.40773449  0.04078183  0.91789087    -0.27100
H129        H  0.30619410  0.91678246  0.94963667     0.11800
H130        H  0.23033885  0.91966526  0.92834746     0.13000
H131        H  0.38481166  0.09897299  0.88075671     0.12000
H132        H  0.31009818  0.09969238  0.85823990     0.11300
H133        H  0.22992248  0.06806593  0.85168945     0.16700
H134        H  0.17836293  0.95560532  0.89760803     0.12600
H135        H  0.38597719  0.94768391  0.95591459     0.15400
H136        H  0.43467953  0.06676814  0.91382709     0.15200
C137        C  0.71018064  0.06332237  0.93923223    -0.17700
C138        C  0.75372448  0.05958501  0.92719995    -0.19800
C139        C  0.75953803  0.02837516  0.90737418     0.20800
C140        C  0.72101581  0.00072636  0.89957785    -0.02800
C141        C  0.67728530  0.00390380  0.91200824    -0.05800
C142        C  0.67181508  0.03551744  0.93185211     0.21100
C143        C  0.63918401  0.97524500  0.90467009     0.19300
C144        C  0.64478358  0.94448953  0.88464502    -0.17300
C145        C  0.68782621  0.94194757  0.87206108    -0.19500
C146        C  0.72621755  0.96971518  0.87944790     0.20700
C147        C  0.76973260  0.96684421  0.86714236    -0.32500
C148        C  0.80851363  0.99378814  0.87499862     0.01400
C149        C  0.80314040  0.02434147  0.89521837    -0.23900
C150        C  0.62830955  0.03831336  0.94416339    -0.28400
C151        C  0.59079695  0.00820776  0.93776431     0.07100
C152        C  0.59641438  0.97729224  0.91770277    -0.27100
H153        H  0.70665345  0.08763312  0.95450316     0.11800
H154        H  0.78287277  0.08116191  0.93339580     0.13000
H155        H  0.61586229  0.92232234  0.87872738     0.12000
H156        H  0.69119964  0.91793464  0.85665354     0.11300
H157        H  0.77364738  0.94295477  0.85171107     0.16700
H158        H  0.83265650  0.04562783  0.90122724     0.12600
H159        H  0.62393312  0.06319300  0.95912301     0.15400
H160        H  0.56772955  0.95408317  0.91256431     0.15200
C161        C  0.92729923  0.29140096  0.49244074    -0.17700
C162        C  0.93023808  0.24772349  0.50422259    -0.19800
C163        C  0.96333544  0.24033043  0.52294413     0.20800
C164        C  0.99376737  0.27731782  0.52988840    -0.02800
C165        C  0.99107715  0.32126810  0.51785367    -0.05800
C166        C  0.95758977  0.32834087  0.49908308     0.21100
C167        C  0.02209619  0.35798744  0.52450332     0.19300
C168        C  0.05513829  0.35062483  0.54323814    -0.17300
C169        C  0.05744953  0.30724683  0.55534584    -0.19500
C170        C  0.02695329  0.27038946  0.54881562     0.20700
C171        C  0.02905536  0.22677059  0.56088095    -0.32500
C172        C  0.99894354  0.18970458  0.55401354     0.01400
C173        C  0.96641022  0.19668264  0.53489852    -0.23900
C174        C  0.95555155  0.37193891  0.48701453    -0.28400
C175        C  0.98755378  0.40803325  0.49293978     0.07100
C176        C  0.02009925  0.40111045  0.51200597    -0.27100
H177        H  0.90154563  0.29618722  0.47800233     0.11800
H178        H  0.90657578  0.21970039  0.49869309     0.13000
H179        H  0.07926351  0.37843311  0.54851777     0.12000
H180        H  0.08321332  0.30247756  0.56977886     0.11300
H181        H  0.05452514  0.22149797  0.57541600     0.16700
H182        H  0.94276110  0.16844971  0.52964474     0.12600
H183        H  0.93005926  0.37744303  0.47250489     0.15400
H184        H  0.04480777  0.42891717  0.51656883     0.15200
C185        C  0.92882429  0.74504158  0.49708244    -0.17700
C186        C  0.92770988  0.70082935  0.48571112    -0.19800
C187        C  0.95442558  0.66345012  0.49508919     0.20800
C188        C  0.98260924  0.67064007  0.51608113    -0.02800
C189        C  0.98308001  0.71494281  0.52779752    -0.05800
C190        C  0.95620645  0.75240772  0.51820267     0.21100
C191        C  0.01036935  0.72166020  0.54915699     0.19300
C192        C  0.03757163  0.68449528  0.55833561    -0.17300
C193        C  0.03781643  0.64088457  0.54644718    -0.19500
C194        C  0.01043643  0.63360511  0.52536056     0.20700
C195        C  0.01111132  0.59020429  0.51314850    -0.32500
C196        C  0.98375081  0.58299133  0.49200237     0.01400
C197        C  0.95411002  0.61923527  0.48363649    -0.23900
C198        C  0.95679129  0.79631895  0.53009478    -0.28400
C199        C  0.98287477  0.80268227  0.55179084     0.07100
C200        C  0.00974857  0.76530591  0.56109492    -0.27100
H201        H  0.90800736  0.77338138  0.48946305     0.11800
H202        H  0.90621624  0.69596035  0.46946487     0.13000
H203        H  0.05878807  0.68920253  0.57469164     0.12000
H204        H  0.05936042  0.61280534  0.55377678     0.11300
H205        H  0.03394606  0.56238650  0.51968139     0.16700
H206        H  0.93204099  0.61344287  0.46768243     0.12600
H207        H  0.93588050  0.82504705  0.52292780     0.15400
H208        H  0.03049973  0.77028756  0.57760003     0.15200
C209        C  0.93670334  0.30358148  0.37513992    -0.17700
C210        C  0.93668588  0.34702443  0.38722940    -0.19800
C211        C  0.96851090  0.35587921  0.40636544     0.20800
C212        C  0.00077130  0.32067357  0.41339842    -0.02800
C213        C  0.00045124  0.27665400  0.40136726    -0.05800
C214        C  0.96834547  0.26818734  0.38210074     0.21100
C215        C  0.03208217  0.24110669  0.40867814     0.19300
C216        C  0.06406114  0.25007948  0.42776464    -0.17300
C217        C  0.06466216  0.29387990  0.43955373    -0.19500
C218        C  0.03312849  0.32933225  0.43253730     0.20700
C219        C  0.03288767  0.37303583  0.44453302    -0.32500
C220        C  0.99963537  0.40753193  0.43820134     0.01400
C221        C  0.96813421  0.39903502  0.41884311    -0.23900
C222        C  0.96829494  0.22444819  0.37016980    -0.28400
C223        C  0.99947875  0.18872946  0.37741546     0.07100
C224        C  0.03116687  0.19726714  0.39676588    -0.27100
H225        H  0.91179581  0.29758216  0.36040715     0.11800
H226        H  0.91169687  0.37369077  0.38163666     0.13000
H227        H  0.08861281  0.22319410  0.43358757     0.12000
H228        H  0.08957069  0.29991628  0.45428450     0.11300
H229        H  0.05770236  0.37988887  0.45922373     0.16700
H230        H  0.94254961  0.42568986  0.41395010     0.12600
H231        H  0.94341605  0.21801357  0.35547257     0.15400
H232        H  0.05563713  0.17009395  0.40231426     0.15200
C233        C  0.07330762  0.69346653  0.44163577    -0.17700
C234        C  0.07562643  0.73751055  0.43013027    -0.19800
C235        C  0.04595545  0.74800160  0.41027512     0.20800
C236        C  0.01352785  0.71374906  0.40199493    -0.02800
C237        C  0.01075975  0.66956340  0.41380780    -0.05800
C238        C  0.04099947  0.65931404  0.43362905     0.21100
C239        C  0.97764179  0.63573469  0.40581324     0.19300
C240        C  0.94787781  0.64622778  0.38602904    -0.17300
C241        C  0.95112166  0.68970487  0.37408514    -0.19500
C242        C  0.98386953  0.72358724  0.38187652     0.20700
C243        C  0.98758908  0.76704189  0.36982459    -0.32500
C244        C  0.01969179  0.80131813  0.37796312     0.01400
C245        C  0.04831256  0.79192621  0.39842141    -0.23900
C246        C  0.03786915  0.61537720  0.44530407    -0.28400
C247        C  0.00379602  0.58220042  0.43797514     0.07100
C248        C  0.97437766  0.59229572  0.41795870    -0.27100
H249        H  0.09660510  0.68621414  0.45691420     0.11800
H250        H  0.10076821  0.76331245  0.43670151     0.13000
H251        H  0.92216224  0.62073179  0.37973724     0.12000
H252        H  0.92793911  0.69686116  0.35874800     0.11300
H253        H  0.96505899  0.77447897  0.35424375     0.16700
H254        H  0.07319625  0.81832014  0.40465685     0.12600
H255        H  0.06090913  0.60740057  0.46060499     0.15400
H256        H  0.94806829  0.56678098  0.41233571     0.15200
C257        C  0.31190673  0.93656101  0.05461262    -0.17700
C258        C  0.35471353  0.93819033  0.04174447    -0.19800
C259        C  0.36268271  0.97259063  0.02364894     0.20800
C260        C  0.32699988  0.00552026  0.01835278    -0.02800
C261        C  0.28341651  0.00336357  0.03105915    -0.05800
C262        C  0.27603019  0.96895290  0.04943033     0.21100
C263        C  0.24725678  0.03553853  0.02534787     0.19300
C264        C  0.25534978  0.07008193  0.00732024    -0.17300
C265        C  0.29877058  0.07268444  0.99502353    -0.19500
C266        C  0.33478012  0.04049852  0.00033196     0.20700
C267        C  0.37822006  0.04239139  0.98781300    -0.32500
C268        C  0.41352066  0.00879294  0.99247118     0.01400
C269        C  0.40551741  0.97432410  0.01062881    -0.23900
C270        C  0.23289655  0.96744900  0.06223016    -0.28400
C271        C  0.19642000  0.99886053  0.05636585     0.07100
C272        C  0.20373019  0.03258469  0.03776358    -0.27100
H273        H  0.30678046  0.90977169  0.06856595     0.11800
H274        H  0.38168774  0.91258531  0.04601219     0.13000
H275        H  0.22808898  0.09518167  0.00275055     0.12000
H276        H  0.30405862  0.09969652  0.98120267     0.11300
H277        H  0.38433833  0.06947504  0.97411070     0.16700
H278        H  0.43242340  0.94826406  0.01428353     0.12600
H279        H  0.22728330  0.94119502  0.07642887     0.15400
H280        H  0.17582332  0.05708832  0.03331841     0.15200
C281        C  0.64883361  0.06470879  0.04475233    -0.17700
C282        C  0.69120620  0.06328210  0.05780971    -0.19800
C283        C  0.72568256  0.02965572  0.05204910     0.20800
C284        C  0.71716187  0.99678865  0.03308048    -0.02800
C285        C  0.67401914  0.99778281  0.02012936    -0.05800
C286        C  0.63991248  0.03220547  0.02586035     0.21100
C287        C  0.66524815  0.96467303  0.00130922     0.19300
C288        C  0.69964554  0.93087462  0.99564906    -0.17300
C289        C  0.74264129  0.93031585  0.00823060    -0.19500
C290        C  0.75192159  0.96330928  0.02686597     0.20700
C291        C  0.79543739  0.96377106  0.03921496    -0.32500
C292        C  0.80411779  0.99646763  0.05814576     0.01400
C293        C  0.76873897  0.02876355  0.06469423    -0.23900
C294        C  0.59778395  0.03395581  0.01240880    -0.28400
C295        C  0.58903316  0.00162243  0.99332784     0.07100
C296        C  0.62255263  0.96636229  0.98829558    -0.27100
H297        H  0.62305070  0.09134961  0.04940193     0.11800
H298        H  0.69721174  0.08884844  0.07227847     0.13000
H299        H  0.69352410  0.90517244  0.98125938     0.12000
H300        H  0.76875236  0.90418832  0.00329429     0.11300
H301        H  0.82240001  0.93848841  0.03427228     0.16700
H302        H  0.77531381  0.05420330  0.07916931     0.12600
H303        H  0.57211489  0.06111843  0.01641289     0.16600
H304        H  0.61571058  0.94085665  0.97388896     0.15200
loop_ 
_geom_bond_atom_site_label_1 
_geom_bond_atom_site_label_2 
_geom_bond_distance 
_geom_bond_site_symmetry_2 
_ccdc_geom_bond_type 
N1            N2   1.324       .  A
N1            C5   1.349   1_565  A
N1           Cu9   2.094       .  S
N2            C3   1.348       .  A
N2           Cu8   2.088       .  S
C3            C4   1.386       .  A
C3            H6   1.082       .  S
C4            C5   1.387   1_565  A
C4          C271   1.484       .  S
C5            H7   1.082       .  S
Cu8          N11   2.088       .  S
Cu9          N19   2.094   1_455  S
Cu10         N12   2.078       .  S
Cu10         N18   2.079       .  S
N11          N12   1.323   1_465  A
N11          C15   1.348       .  A
N12          C13   1.346       .  A
C13          C14   1.381   1_545  A
C13          H16   1.082       .  S
C14          C15   1.384   1_655  A
C14          C38   1.470       .  S
C15          H17   1.082       .  S
N18          N19   1.322   1_545  A
N18          C22   1.346       .  A
N19          C20   1.349       .  A
C20          C21   1.388       .  A
C20          H23   1.082       .  S
C21          C22   1.385   1_565  A
C21         C292   1.485       .  S
C22          H24   1.082       .  S
N25          N26   1.323   1_455  A
N25          C29   1.345       .  A
N25         Cu33   2.075   1_545  S
N26          C27   1.344       .  A
N26         Cu32   2.078       .  S
C27          C28   1.385       .  A
C27          H30   1.082       .  S
C28          C29   1.385   1_655  A
C28         C223   1.480       .  S
C29          H31   1.082       .  S
Cu32         N35   2.077       .  S
Cu33         N43   2.074       .  S
Cu34         N36   2.077       .  S
Cu34         N42   2.077       .  S
N35          N36   1.322   1_645  A
N35          C39   1.347       .  A
N36          C37   1.346       .  A
C37          C38   1.382   1_455  A
C37          H40   1.082       .  S
C38          C39   1.383   1_565  A
C39          H41   1.082       .  S
N42          N43   1.322       .  A
N42          C46   1.344       .  A
N43          C44   1.347       .  A
C44          C45   1.385       .  A
C44          H47   1.082       .  S
C45          C46   1.384       .  A
C45         C244   1.477       .  S
C46          H48   1.082       .  S
C49          C50   1.418       .  A
C49          C54   1.405       .  A
C49         C196   1.487       .  S
C50          C51   1.402       .  A
C50         C247   1.486   1_655  S
C51          C52   1.404       .  A
C51          H56   1.084   1_655  S
C52          C53   1.417       .  A
C52         C220   1.483       .  S
C53          C54   1.403       .  A
C53         C175   1.486       .  S
C54          H55   1.084       .  S
N57          N58   1.323       .  A
N57          C61   1.347       .  A
N57         Cu65   2.084   1_665  S
N58          C59   1.346       .  A
N58         Cu64   2.084       .  S
C59          C60   1.387       .  A
C59          H62   1.082       .  S
C60          C61   1.387       .  A
C60         C148   1.485       .  S
C61          H63   1.082   1_565  S
Cu64         N67   2.084       .  S
Cu65         N75   2.084       .  S
Cu66         N68   2.078       .  S
Cu66         N74   2.078       .  S
N67          N68   1.323   1_665  A
N67          C71   1.348       .  A
N68          C69   1.346       .  A
C69          C70   1.381   1_545  A
C69          H72   1.082       .  S
C70          C71   1.384   1_455  A
C70          C94   1.469       .  S
C71          H73   1.082       .  S
N74          N75   1.322       .  A
N74          C78   1.347       .  A
N75          C76   1.346       .  A
C76          C77   1.386       .  A
C76          H79   1.082       .  S
C77          C78   1.385       .  A
C77         C124   1.481       .  S
C78          H80   1.082       .  S
N81          N82   1.321       .  A
N81          C85   1.346       .  A
N81         Cu89   2.070       .  S
N82          C83   1.342       .  A
N82         Cu88   2.070       .  S
C83          C84   1.384       .  A
C83          H86   1.082       .  S
C84          C85   1.385       .  A
C84         C199   1.477       .  S
C85          H87   1.082       .  S
Cu88         N91   2.070       .  S
Cu89         N99   2.071   1_565  S
Cu90         N92   2.085       .  S
Cu90         N98   2.086       .  S
N91          N92   1.322   1_665  A
N91          C95   1.346       .  A
N92          C93   1.347       .  A
C93          C94   1.384   1_545  A
C93          H96   1.082       .  S
C94          C95   1.381   1_455  A
C95          H97   1.082       .  S
N98          N99   1.323   1_455  A
N98         C102   1.346       .  A
N99         C100   1.344       .  A
C100        C101   1.384   1_655  A
C100        H103   1.082       .  S
C101        C102   1.387       .  A
C101        C172   1.481   1_455  S
C102        H104   1.082       .  S
C105        C106   1.422       .  A
C105        C110   1.408       .  A
C105        C295   1.495       .  S
C106        C107   1.409       .  A
C106        C151   1.495       .  S
C107        C108   1.408       .  A
C107        H112   1.084       .  S
C108        C109   1.422       .  A
C108        C127   1.494       .  S
C109        C110   1.409       .  A
C109        C268   1.496       .  S
C110        H111   1.084   1_556  S
C113        C114   1.399       .  A
C113        C118   1.403       .  A
C113        H129   1.084       .  S
C114        C115   1.403       .  A
C114        H130   1.083       .  S
C115        C125   1.404       .  A
C115        C116   1.412   1_565  A
C116        C122   1.412       .  A
C116        C117   1.414       .  A
C117        C119   1.411       .  A
C117        C118   1.411   1_545  A
C118        C126   1.403       .  A
C119        C128   1.407       .  A
C119        C120   1.405       .  A
C120        C121   1.402       .  A
C120        H131   1.083       .  S
C121        C122   1.404       .  A
C121        H132   1.084       .  S
C122        C123   1.407       .  A
C123        C124   1.407       .  A
C123        H133   1.084       .  S
C124        C125   1.405   1_545  A
C125        H134   1.084       .  S
C126        C127   1.407   1_565  A
C126        H135   1.084       .  S
C127        C128   1.409       .  A
C128        H136   1.084       .  S
C137        C138   1.400       .  A
C137        C142   1.404       .  A
C137        H153   1.084       .  S
C138        C139   1.404       .  A
C138        H154   1.083       .  S
C139        C149   1.406       .  A
C139        C140   1.411       .  A
C140        C146   1.412   1_545  A
C140        C141   1.414       .  A
C141        C143   1.411   1_545  A
C141        C142   1.411       .  A
C142        C150   1.405       .  A
C143        C152   1.404       .  A
C143        C144   1.404       .  A
C144        C145   1.400       .  A
C144        H155   1.083       .  S
C145        C146   1.404       .  A
C145        H156   1.084       .  S
C146        C147   1.405       .  A
C147        C148   1.407       .  A
C147        H157   1.084       .  S
C148        C149   1.408   1_565  A
C149        H158   1.084       .  S
C150        C151   1.409       .  A
C150        H159   1.084       .  S
C151        C152   1.408   1_545  A
C152        H160   1.084       .  S
C161        C162   1.399       .  A
C161        C166   1.403       .  A
C161        H177   1.083       .  S
C162        C163   1.404       .  A
C162        H178   1.084       .  S
C163        C173   1.403       .  A
C163        C164   1.411       .  A
C164        C170   1.412   1_655  A
C164        C165   1.412       .  A
C165        C167   1.411   1_655  A
C165        C166   1.412       .  A
C166        C174   1.403       .  A
C167        C176   1.402       .  A
C167        C168   1.403       .  A
C168        C169   1.399       .  A
C168        H179   1.084       .  S
C169        C170   1.403       .  A
C169        H180   1.083       .  S
C170        C171   1.404       .  A
C171        C172   1.406   1_455  A
C171        H181   1.084       .  S
C172        C173   1.407       .  A
C173        H182   1.084       .  S
C174        C175   1.406       .  A
C174        H183   1.084       .  S
C175        C176   1.405   1_655  A
C176        H184   1.084       .  S
C185        C186   1.400       .  A
C185        C190   1.404       .  A
C185        H201   1.083       .  S
C186        C187   1.404       .  A
C186        H202   1.084       .  S
C187        C197   1.402       .  A
C187        C188   1.410       .  A
C188        C194   1.412   1_655  A
C188        C189   1.410       .  A
C189        C191   1.411   1_655  A
C189        C190   1.412       .  A
C190        C198   1.405       .  A
C191        C200   1.399       .  A
C191        C192   1.403       .  A
C192        C193   1.397       .  A
C192        H203   1.084       .  S
C193        C194   1.402       .  A
C193        H204   1.083       .  S
C194        C195   1.400       .  A
C195        C196   1.404   1_455  A
C195        H205   1.084       .  S
C196        C197   1.408       .  A
C197        H206   1.084       .  S
C198        C199   1.406       .  A
C198        H207   1.084       .  S
C199        C200   1.405   1_655  A
C200        H208   1.084       .  S
C209        C210   1.398       .  A
C209        C214   1.403       .  A
C209        H225   1.083       .  S
C210        C211   1.403       .  A
C210        H226   1.084       .  S
C211        C221   1.401       .  A
C211        C212   1.412   1_655  A
C212        C218   1.412       .  A
C212        C213   1.411       .  A
C213        C215   1.411       .  A
C213        C214   1.411   1_455  A
C214        C222   1.401       .  A
C215        C224   1.403       .  A
C215        C216   1.404       .  A
C216        C217   1.399       .  A
C216        H227   1.084       .  S
C217        C218   1.403       .  A
C217        H228   1.084       .  S
C218        C219   1.402       .  A
C219        C220   1.406   1_455  A
C219        H229   1.084       .  S
C220        C221   1.404       .  A
C221        H230   1.085       .  S
C222        C223   1.406       .  A
C222        H231   1.083       .  S
C223        C224   1.407   1_655  A
C224        H232   1.084       .  S
C233        C234   1.400       .  A
C233        C238   1.404       .  A
C233        H249   1.084       .  S
C234        C235   1.404       .  A
C234        H250   1.083       .  S
C235        C245   1.406       .  A
C235        C236   1.413       .  A
C236        C242   1.411   1_455  A
C236        C237   1.412       .  A
C237        C239   1.412   1_455  A
C237        C238   1.411       .  A
C238        C246   1.403       .  A
C239        C248   1.402       .  A
C239        C240   1.403       .  A
C240        C241   1.398       .  A
C240        H251   1.083       .  S
C241        C242   1.403       .  A
C241        H252   1.084       .  S
C242        C243   1.401       .  A
C243        C244   1.405   1_655  A
C243        H253   1.084       .  S
C244        C245   1.406       .  A
C245        H254   1.084       .  S
C246        C247   1.407       .  A
C246        H255   1.084       .  S
C247        C248   1.404   1_455  A
C248        H256   1.084       .  S
C257        C258   1.400       .  A
C257        C262   1.404       .  A
C257        H273   1.084       .  S
C258        C259   1.404       .  A
C258        H274   1.083       .  S
C259        C269   1.405       .  A
C259        C260   1.411   1_565  A
C260        C266   1.412       .  A
C260        C261   1.416       .  A
C261        C263   1.412       .  A
C261        C262   1.412   1_545  A
C262        C270   1.406       .  A
C263        C272   1.408       .  A
C263        C264   1.405       .  A
C264        C265   1.401   1_554  A
C264        H275   1.083       .  S
C265        C266   1.404   1_556  A
C265        H276   1.084       .  S
C266        C267   1.407   1_554  A
C267        C268   1.409       .  A
C267        H277   1.084       .  S
C268        C269   1.408   1_546  A
C269        H278   1.084       .  S
C270        C271   1.406       .  A
C270        H279   1.084       .  S
C271        C272   1.407   1_565  A
C272        H280   1.084       .  S
C281        C282   1.400       .  A
C281        C286   1.404       .  A
C281        H297   1.083       .  S
C282        C283   1.404       .  A
C282        H298   1.084       .  S
C283        C293   1.405       .  A
C283        C284   1.412   1_545  A
C284        C290   1.412       .  A
C284        C285   1.416       .  A
C285        C287   1.412       .  A
C285        C286   1.412   1_565  A
C286        C294   1.405       .  A
C287        C296   1.407   1_554  A
C287        C288   1.404   1_554  A
C288        C289   1.402   1_556  A
C288        H299   1.084       .  S
C289        C290   1.405       .  A
C289        H300   1.083       .  S
C290        C291   1.408       .  A
C291        C292   1.408       .  A
C291        H301   1.084       .  S
C292        C293   1.407   1_565  A
C293        H302   1.084       .  S
C294        C295   1.407   1_554  A
C294        H303   1.084       .  S
C295        C296   1.409   1_545  A
C296        H304   1.084       .  S
