geometry optimzed in LAMMPS
_audit_creation_date              2020-12-01 
_audit_creation_method            'lammps2cif' 
_symmetry_space_group_name_H-M    'P1' 
_symmetry_Int_Tables_number       1 
_symmetry_cell_setting            triclinic 
loop_ 
_symmetry_equiv_pos_as_xyz 
  x,y,z 
_cell_length_a                    24.19804115 
_cell_length_b                    24.19797111002112 
_cell_length_c                    24.197453418521242 
_cell_angle_alpha                 90.00141627888287 
_cell_angle_beta                  90.00055341235115 
_cell_angle_gamma                 89.99992430166716 
loop_ 
_atom_site_label 
_atom_site_type_symbol 
_atom_site_fract_x 
_atom_site_fract_y 
_atom_site_fract_z 
_atom_site_charge 
C1          C  0.65439592  0.72308273  0.72307431     0.82500
N2          N  0.67722956  0.67722457  0.74589541    -0.75800
C3          C  0.72308720  0.65439145  0.72307211     0.84900
N4          N  0.74591190  0.67722835  0.67721692    -0.75800
C5          C  0.72308963  0.72308655  0.65438470     0.85000
N6          N  0.67723181  0.74590847  0.67721933    -0.77500
C7          C  0.72307919  0.27179337  0.72307332     0.82500
N8          N  0.74590108  0.24895987  0.67721406    -0.75800
C9          C  0.72307828  0.20310253  0.65437865     0.84900
N10         N  0.67722330  0.18027782  0.67721434    -0.75800
C11         C  0.65439038  0.20310000  0.72307371     0.85000
N12         N  0.67722421  0.24895758  0.74589801    -0.77500
C13         C  0.20310753  0.20310664  0.65438325     0.82500
N14         N  0.18028512  0.24896352  0.67721978    -0.75800
C15         C  0.20310933  0.27179708  0.72307842     0.84900
N16         N  0.24896598  0.24896179  0.74590112    -0.75800
C17         C  0.27179907  0.20310469  0.72307584     0.85000
N18         N  0.24896410  0.18028238  0.67721721    -0.77500
C19         C  0.20310129  0.65439193  0.72307782     0.82500
N20         N  0.24896109  0.67722343  0.74589930    -0.75800
C21         C  0.27179554  0.72307991  0.72307629     0.84900
N22         N  0.24895811  0.74590582  0.67722160    -0.75800
C23         C  0.20309812  0.72308552  0.65438916     0.85000
N24         N  0.18027518  0.67722878  0.67722304    -0.77500
C25         C  0.27179403  0.72309297  0.20309489     0.82500
N26         N  0.24896082  0.74591615  0.24895357    -0.75800
C27         C  0.20310516  0.72309239  0.27178885     0.84900
N28         N  0.18028207  0.67723501  0.24895382    -0.75800
C29         C  0.20310442  0.65440057  0.20309529     0.85000
N30         N  0.24896006  0.67723538  0.18027088    -0.77500
C31         C  0.65438818  0.72308843  0.20309302     0.82500
N32         N  0.67722170  0.67723121  0.18026819    -0.75800
C33         C  0.72307904  0.65439715  0.20309090     0.84900
N34         N  0.74590337  0.67723174  0.24894879    -0.75800
C35         C  0.72308056  0.72308871  0.27178463     0.85000
N36         N  0.67722343  0.74591197  0.24895093    -0.77500
C37         C  0.72308399  0.27180129  0.20308832     0.82500
N38         N  0.67722456  0.24896944  0.18026622    -0.75800
C39         C  0.65439012  0.20311278  0.20308899     0.84900
N40         N  0.67722724  0.18028715  0.24894403    -0.75800
C41         C  0.72308668  0.20310787  0.27177700     0.85000
N42         N  0.74590955  0.24896470  0.24894340    -0.77500
C43         C  0.78620665  0.41453875  0.78619793     0.82500
N44         N  0.82585842  0.41452146  0.82584882    -0.75800
C45         C  0.84582286  0.46309338  0.84580961     0.84900
N46         N  0.82586205  0.51166365  0.82584599    -0.75800
C47         C  0.78621034  0.51164589  0.78619489     0.85000
N48         N  0.76641590  0.46309185  0.76640422    -0.77500
C49         C  0.13998302  0.41454122  0.78620546     0.82500
N50         N  0.10033073  0.41452385  0.82585509    -0.75800
C51         C  0.08036517  0.46309544  0.84581473     0.84900
N52         N  0.10032529  0.51166602  0.82585148    -0.75800
C53         C  0.13997745  0.51164834  0.78620188     0.85000
N54         N  0.15977308  0.46309471  0.76641202    -0.77500
C55         C  0.78620455  0.51165241  0.13996357     0.82500
N56         N  0.82585638  0.51166982  0.10031351    -0.75800
C57         C  0.84582085  0.46309840  0.08035297     0.84900
N58         N  0.82586034  0.41452756  0.10031575    -0.75800
C59         C  0.78620858  0.41454532  0.13996581     0.85000
N60         N  0.76641382  0.46309911  0.15975652    -0.77500
C61         C  0.13997766  0.51165502  0.13997028     0.82500
N62         N  0.10032598  0.51167211  0.10031936    -0.75800
C63         C  0.08036242  0.46310022  0.08035796     0.84900
N64         N  0.10032384  0.41452998  0.10032091    -0.75800
C65         C  0.13997536  0.41454765  0.13997202     0.85000
N66         N  0.15976918  0.46310186  0.15976345    -0.77500
O67         O  0.01907046  0.41698486  0.01906411    -0.72200
O68         O  0.90711589  0.41698110  0.90710324    -0.72200
O69         O  0.01907186  0.41698214  0.90710575    -0.72300
O70         O  0.90711478  0.41698387  0.01906148    -0.72300
O71         O  0.90711383  0.50921142  0.01906160    -0.72200
O72         O  0.01907076  0.50920966  0.90710569    -0.72200
O73         O  0.90711512  0.50920864  0.90710326    -0.72200
O74         O  0.01906972  0.50921237  0.01906409    -0.72300
Ni75       Ni  0.96309328  0.41369519  0.96308362     1.25400
Ni76       Ni  0.96309231  0.51249831  0.96308369     1.25400
C77         C  0.03745643  0.46309950  0.03745112     0.90000
C78         C  0.88872891  0.46309414  0.88871609     0.89900
C79         C  0.03745812  0.46309568  0.88871954     0.90000
C80         C  0.88872750  0.46309803  0.03744781     0.90100
C81         C  0.51165004  0.78620502  0.78619974     0.82500
N82         N  0.46309668  0.76641122  0.76640719    -0.75800
C83         C  0.41454294  0.78620326  0.78619926     0.84900
N84         N  0.41452477  0.82585570  0.82585013    -0.75800
C85         C  0.46309563  0.84581962  0.84581263     0.85000
N86         N  0.51166661  0.82585755  0.82585075    -0.77500
C87         C  0.51164876  0.13997329  0.78619858     0.82500
N88         N  0.51166597  0.10032222  0.82584893    -0.75800
C89         C  0.46309473  0.08036148  0.84581101     0.84900
N90         N  0.41452410  0.10032505  0.82584969    -0.75800
C91         C  0.41454196  0.13997613  0.78619932     0.85000
N92         N  0.46309560  0.15976705  0.76640706    -0.77500
C93         C  0.41453717  0.78621724  0.13997034     0.82500
N94         N  0.46309021  0.76642389  0.15976207    -0.75800
C95         C  0.51164392  0.78621443  0.13996957     0.84900
N96         N  0.51166182  0.82586494  0.10031865    -0.75800
C97         C  0.46309111  0.84582829  0.08035677     0.85000
N98         N  0.41451985  0.82586765  0.10031926    -0.77500
C99         C  0.41453572  0.13998663  0.13996551     0.82500
N100        N  0.46308911  0.15978100  0.15975768    -0.75800
C101        C  0.51164285  0.13998864  0.13996602     0.84900
N102        N  0.51166109  0.10033524  0.10031603    -0.75800
C103        C  0.46309053  0.08037080  0.08035408     0.85000
N104        N  0.41451919  0.10033331  0.10031540    -0.77500
O105        O  0.50920783  0.90711456  0.90710648    -0.72200
O106        O  0.50920528  0.01907520  0.01906354    -0.72200
O107        O  0.50920569  0.90711905  0.01906486    -0.72300
O108        O  0.50920751  0.01907051  0.90710530    -0.72300
O109        O  0.41698020  0.01907038  0.90710277    -0.72200
O110        O  0.41697841  0.90711896  0.01906238    -0.72200
O111        O  0.41697803  0.01907505  0.01906096    -0.72200
O112        O  0.41698059  0.90711426  0.90710406    -0.72300
Ni113      Ni  0.51249431  0.96309484  0.96308517     1.25400
Ni114      Ni  0.41369149  0.96309465  0.96308243     1.25400
C115        C  0.46309460  0.88872713  0.88871860     0.90000
C116        C  0.46309142  0.03746259  0.03744878     0.89900
C117        C  0.46309175  0.88873297  0.03745057     0.90000
C118        C  0.46309421  0.03745652  0.88871705     0.90100
C119        C  0.20309744  0.20310747  0.27178163     0.82500
N120        N  0.18027499  0.24896556  0.24894919    -0.75800
C121        C  0.20309922  0.27180183  0.20309355     0.84900
N122        N  0.24895650  0.24896835  0.18026983    -0.75800
C123        C  0.27179014  0.20311031  0.20309095     0.85000
N124        N  0.24895478  0.18028507  0.24894659    -0.77500
C125        C  0.78620933  0.78621509  0.41453147     0.82500
N126        N  0.76641969  0.76642277  0.46308626    -0.75800
C127        C  0.78621383  0.78621477  0.51164093     0.84900
N128        N  0.82586419  0.82586587  0.51165787    -0.75800
C129        C  0.84582389  0.84582824  0.46308567     0.85000
N130        N  0.82585979  0.82586612  0.41451362    -0.77500
C131        C  0.13997903  0.78621732  0.41453610     0.82500
N132        N  0.10032846  0.82586830  0.41451763    -0.75800
C133        C  0.08036339  0.84582906  0.46308922     0.84900
N134        N  0.10032188  0.82586559  0.51166191    -0.75800
C135        C  0.13997228  0.78621458  0.51164532     0.85000
N136        N  0.15976769  0.76642367  0.46309125    -0.77500
C137        C  0.78621200  0.13998087  0.41452172     0.82500
N138        N  0.82586340  0.10033078  0.41450591    -0.75800
C139        C  0.84582220  0.08036812  0.46307862     0.86600
N140        N  0.82585638  0.10032895  0.51165010    -0.75800
C141        C  0.78620497  0.13997894  0.51163110     0.85000
N142        N  0.76641592  0.15977164  0.46307578    -0.77500
C143        C  0.13997370  0.13998171  0.41452673     0.82500
N144        N  0.10032285  0.10033110  0.41451014    -0.75800
C145        C  0.08036286  0.08036942  0.46308230     0.84900
N146        N  0.10032717  0.10033164  0.51165444    -0.75800
C147        C  0.13997802  0.13998221  0.51163604     0.85000
N148        N  0.15976801  0.15977398  0.46308126    -0.77500
O149        O  0.90711540  0.01907428  0.41696663    -0.72200
O150        O  0.01907166  0.90711902  0.41697210    -0.72200
O151        O  0.90711594  0.90711826  0.41697020    -0.72300
O152        O  0.01907098  0.01907489  0.41696851    -0.72300
O153        O  0.01907054  0.01907965  0.50919803    -0.72200
O154        O  0.90711530  0.90712312  0.50919971    -0.72200
O155        O  0.01907094  0.90712368  0.50920164    -0.72200
O156        O  0.90711463  0.01907908  0.50919614    -0.72300
Ni157      Ni  0.96309355  0.96309640  0.41368150     1.25400
Ni158      Ni  0.96309283  0.96310160  0.51248673     1.25400
C159        C  0.88872841  0.03746295  0.46308071     0.90000
C160        C  0.03745787  0.88873483  0.46308765     0.89900
C161        C  0.88872916  0.88873403  0.46308507     0.90000
C162        C  0.03745731  0.03746390  0.46308340     0.90100
C163        C  0.17977939  0.17978866  0.32106910    -0.11000
C164        C  0.16108922  0.16109821  0.36329437    -0.12600
C165        C  0.36330418  0.16110372  0.16108246    -0.11000
C166        C  0.32107898  0.17979363  0.17977294    -0.12600
C167        C  0.16109236  0.36331681  0.16108934    -0.11000
C168        C  0.17978234  0.32109130  0.17977835    -0.12600
C169        C  0.60509938  0.17979793  0.17977320    -0.11000
C170        C  0.56287377  0.16110774  0.16108349    -0.12600
C171        C  0.74640114  0.32108973  0.17977226    -0.11000
C172        C  0.76509183  0.36331443  0.16108300    -0.12600
C173        C  0.74640604  0.17978902  0.32106431    -0.11000
C174        C  0.76509688  0.16109816  0.36328922    -0.12600
C175        C  0.76508577  0.56288355  0.16108068    -0.11000
C176        C  0.74639528  0.60510837  0.17977205    -0.12600
C177        C  0.56287449  0.76509590  0.16108648    -0.11000
C178        C  0.60509925  0.74640529  0.17977649    -0.12600
C179        C  0.76509027  0.76509740  0.36329970    -0.11000
C180        C  0.74639865  0.74640631  0.32107441    -0.12600
C181        C  0.16109656  0.56288639  0.16108726    -0.11000
C182        C  0.17978774  0.60511118  0.17977780    -0.12600
C183        C  0.32108185  0.74641005  0.17977767    -0.11000
C184        C  0.36330624  0.76510071  0.16108750    -0.12600
C185        C  0.17978929  0.74640959  0.32107920    -0.11000
C186        C  0.16109862  0.76510032  0.36330472    -0.12600
C187        C  0.17978405  0.60510378  0.74639421    -0.11000
C188        C  0.16109368  0.56287918  0.76508419    -0.12600
C189        C  0.16108734  0.76509626  0.56287776    -0.11000
C190        C  0.17977830  0.74640470  0.60510233    -0.12600
C191        C  0.32108653  0.74639461  0.74639176    -0.11000
C192        C  0.36331213  0.76508456  0.76508159    -0.12600
C193        C  0.17978950  0.17979029  0.60509315    -0.11000
C194        C  0.16109763  0.16109980  0.56286781    -0.12600
C195        C  0.32108721  0.17978657  0.74639252    -0.11000
C196        C  0.36331154  0.16109510  0.76508260    -0.12600
C197        C  0.17979324  0.32108561  0.74639777    -0.11000
C198        C  0.16110259  0.36331014  0.76508909    -0.12600
C199        C  0.56287961  0.16109035  0.76508169    -0.11000
C200        C  0.60510342  0.17978168  0.74639145    -0.12600
C201        C  0.76508482  0.16109602  0.56286226    -0.11000
C202        C  0.74639388  0.17978622  0.60508788    -0.12600
C203        C  0.76508700  0.36330741  0.76508162    -0.11000
C204        C  0.74639554  0.32108266  0.74639104    -0.12600
C205        C  0.56288143  0.76508829  0.76508240    -0.11000
C206        C  0.60510674  0.74639887  0.74639190    -0.12600
C207        C  0.74640429  0.60510217  0.74638743    -0.11000
C208        C  0.76509403  0.56287687  0.76507698    -0.12600
C209        C  0.76509852  0.76509739  0.56287315    -0.11000
C210        C  0.74640827  0.74640616  0.60509775    -0.12600
loop_ 
_geom_bond_atom_site_label_1 
_geom_bond_atom_site_label_2 
_geom_bond_distance 
_geom_bond_site_symmetry_2 
_ccdc_geom_bond_type 
C1            N2   1.357       .  A
C1            N6   1.357       .  A
C1          C206   1.435       .  S
N2            C3   1.357       .  A
C3            N4   1.357       .  A
C3          C207   1.435       .  S
N4            C5   1.357       .  A
C5            N6   1.357       .  A
C5          C210   1.435       .  S
C7            N8   1.357       .  A
C7           N12   1.357       .  A
C7          C204   1.435       .  S
N8            C9   1.357       .  A
C9           N10   1.357       .  A
C9          C202   1.435       .  S
N10          C11   1.357       .  A
C11          N12   1.357       .  A
C11         C200   1.435       .  S
C13          N14   1.357       .  A
C13          N18   1.357       .  A
C13         C193   1.435       .  S
N14          C15   1.357       .  A
C15          N16   1.357       .  A
C15         C197   1.435       .  S
N16          C17   1.357       .  A
C17          N18   1.357       .  A
C17         C195   1.435       .  S
C19          N20   1.357       .  A
C19          N24   1.357       .  A
C19         C187   1.435       .  S
N20          C21   1.357       .  A
C21          N22   1.357       .  A
C21         C191   1.435       .  S
N22          C23   1.357       .  A
C23          N24   1.357       .  A
C23         C190   1.435       .  S
C25          N26   1.357       .  A
C25          N30   1.357       .  A
C25         C183   1.435       .  S
N26          C27   1.357       .  A
C27          N28   1.357       .  A
C27         C185   1.435       .  S
N28          C29   1.357       .  A
C29          N30   1.357       .  A
C29         C182   1.435       .  S
C31          N32   1.357       .  A
C31          N36   1.357       .  A
C31         C178   1.435       .  S
N32          C33   1.357       .  A
C33          N34   1.357       .  A
C33         C176   1.435       .  S
N34          C35   1.357       .  A
C35          N36   1.357       .  A
C35         C180   1.435       .  S
C37          N38   1.357       .  A
C37          N42   1.357       .  A
C37         C171   1.435       .  S
N38          C39   1.357       .  A
C39          N40   1.357       .  A
C39         C169   1.435       .  S
N40          C41   1.357       .  A
C41          N42   1.357       .  A
C41         C173   1.435       .  S
C43          N44   1.357       .  A
C43          N48   1.356       .  A
C43         C203   1.435       .  S
N44          C45   1.359       .  A
C45          N46   1.359       .  A
C45          C78   1.468       .  S
N46          C47   1.357       .  A
C47          N48   1.356       .  A
C47         C208   1.435       .  S
C49          N50   1.357       .  A
C49          N54   1.356       .  A
C49         C198   1.435       .  S
N50          C51   1.359       .  A
C51          N52   1.359       .  A
C51          C79   1.468       .  S
N52          C53   1.357       .  A
C53          N54   1.356       .  A
C53         C188   1.435       .  S
C55          N56   1.357       .  A
C55          N60   1.356       .  A
C55         C175   1.435       .  S
N56          C57   1.359       .  A
C57          N58   1.359       .  A
C57          C80   1.468       .  S
N58          C59   1.357       .  A
C59          N60   1.356       .  A
C59         C172   1.435       .  S
C61          N62   1.357       .  A
C61          N66   1.356       .  A
C61         C181   1.435       .  S
N62          C63   1.359       .  A
C63          N64   1.359       .  A
C63          C77   1.468       .  S
N64          C65   1.357       .  A
C65          N66   1.356       .  A
C65         C167   1.435       .  S
O67         Ni75   1.917   1_454  S
O67          C77   1.281       .  A
O68         Ni75   1.917       .  S
O68          C78   1.281       .  A
O69         Ni75   1.917   1_455  S
O69          C79   1.281       .  A
O70         Ni75   1.917   1_554  S
O70          C80   1.281       .  A
O71         Ni76   1.917   1_554  S
O71          C80   1.281       .  A
O72         Ni76   1.917   1_455  S
O72          C79   1.281       .  A
O73         Ni76   1.917       .  S
O73          C78   1.281       .  A
O74         Ni76   1.917   1_454  S
O74          C77   1.281       .  A
Ni75        Ni76   2.391       .  S
C81          N82   1.356       .  A
C81          N86   1.357       .  A
C81         C205   1.435       .  S
N82          C83   1.356       .  A
C83          N84   1.357       .  A
C83         C192   1.435       .  S
N84          C85   1.359       .  A
C85          N86   1.359       .  A
C85         C115   1.468       .  S
C87          N88   1.357       .  A
C87          N92   1.356       .  A
C87         C199   1.435       .  S
N88          C89   1.359       .  A
C89          N90   1.359       .  A
C89         C118   1.468       .  S
N90          C91   1.357       .  A
C91          N92   1.356       .  A
C91         C196   1.435       .  S
C93          N94   1.356       .  A
C93          N98   1.357       .  A
C93         C184   1.435       .  S
N94          C95   1.356       .  A
C95          N96   1.357       .  A
C95         C177   1.435       .  S
N96          C97   1.359       .  A
C97          N98   1.359       .  A
C97         C117   1.468       .  S
C99         N100   1.356       .  A
C99         N104   1.357       .  A
C99         C165   1.435       .  S
N100        C101   1.356       .  A
C101        N102   1.357       .  A
C101        C170   1.435       .  S
N102        C103   1.359       .  A
C103        N104   1.359       .  A
C103        C116   1.468       .  S
O105       Ni113   1.917       .  S
O105        C115   1.281       .  A
O106       Ni113   1.917   1_544  S
O106        C116   1.281       .  A
O107       Ni113   1.917   1_554  S
O107        C117   1.281       .  A
O108       Ni113   1.917   1_545  S
O108        C118   1.281       .  A
O109       Ni114   1.917   1_545  S
O109        C118   1.281       .  A
O110       Ni114   1.917   1_554  S
O110        C117   1.281       .  A
O111       Ni114   1.917   1_544  S
O111        C116   1.281       .  A
O112       Ni114   1.917       .  S
O112        C115   1.281       .  A
Ni113      Ni114   2.391       .  S
C119        N120   1.357       .  A
C119        N124   1.357       .  A
C119        C163   1.435       .  S
N120        C121   1.357       .  A
C121        N122   1.357       .  A
C121        C168   1.435       .  S
N122        C123   1.357       .  A
C123        N124   1.357       .  A
C123        C166   1.435       .  S
C125        N126   1.356       .  A
C125        N130   1.357       .  A
C125        C179   1.435       .  S
N126        C127   1.356       .  A
C127        N128   1.357       .  A
C127        C209   1.435       .  S
N128        C129   1.359       .  A
C129        N130   1.359       .  A
C129        C161   1.468       .  S
C131        N132   1.357       .  A
C131        N136   1.356       .  A
C131        C186   1.435       .  S
N132        C133   1.359       .  A
C133        N134   1.359       .  A
C133        C160   1.468       .  S
N134        C135   1.357       .  A
C135        N136   1.356       .  A
C135        C189   1.435       .  S
C137        N138   1.357       .  A
C137        N142   1.356       .  A
C137        C174   1.435       .  S
N138        C139   1.359       .  A
C139        N140   1.359       .  A
C139        C159   1.468       .  S
N140        C141   1.357       .  A
C141        N142   1.356       .  A
C141        C201   1.435       .  S
C143        N144   1.357       .  A
C143        N148   1.356       .  A
C143        C164   1.435       .  S
N144        C145   1.359       .  A
C145        N146   1.359       .  A
C145        C162   1.468       .  S
N146        C147   1.357       .  A
C147        N148   1.356       .  A
C147        C194   1.435       .  S
O149       Ni157   1.917   1_545  S
O149        C159   1.281       .  A
O150       Ni157   1.917   1_455  S
O150        C160   1.281       .  A
O151       Ni157   1.917       .  S
O151        C161   1.281       .  A
O152       Ni157   1.917   1_445  S
O152        C162   1.281       .  A
O153       Ni158   1.917   1_445  S
O153        C162   1.281       .  A
O154       Ni158   1.917       .  S
O154        C161   1.281       .  A
O155       Ni158   1.917   1_455  S
O155        C160   1.281       .  A
O156       Ni158   1.917   1_545  S
O156        C159   1.281       .  A
Ni157      Ni158   2.391       .  S
C163        C164   1.205       .  T
C165        C166   1.205       .  T
C167        C168   1.205       .  T
C169        C170   1.205       .  T
C171        C172   1.205       .  T
C173        C174   1.205       .  T
C175        C176   1.205       .  T
C177        C178   1.205       .  T
C179        C180   1.205       .  T
C181        C182   1.205       .  T
C183        C184   1.205       .  T
C185        C186   1.205       .  T
C187        C188   1.205       .  T
C189        C190   1.205       .  T
C191        C192   1.205       .  T
C193        C194   1.205       .  T
C195        C196   1.205       .  T
C197        C198   1.205       .  T
C199        C200   1.205       .  T
C201        C202   1.205       .  T
C203        C204   1.205       .  T
C205        C206   1.205       .  T
C207        C208   1.205       .  T
C209        C210   1.205       .  T
