geometry optimzed in LAMMPS
_audit_creation_date              2020-12-01 
_audit_creation_method            'lammps2cif' 
_symmetry_space_group_name_H-M    'P1' 
_symmetry_Int_Tables_number       1 
_symmetry_cell_setting            triclinic 
loop_ 
_symmetry_equiv_pos_as_xyz 
  x,y,z 
_cell_length_a                    25.30831034 
_cell_length_b                    25.318035693096853 
_cell_length_c                    25.299195665226854 
_cell_angle_alpha                 90.00118041003553 
_cell_angle_beta                  89.99772995057354 
_cell_angle_gamma                 89.99628928994049 
loop_ 
_atom_site_label 
_atom_site_type_symbol 
_atom_site_fract_x 
_atom_site_fract_y 
_atom_site_fract_z 
_atom_site_charge 
C1          C  0.41419495  0.61660988  0.85229674     0.45000
N2          N  0.43021348  0.56713193  0.91871095     0.03900
C3          C  0.65469825  0.56486878  0.07461163    -0.04000
H4          H  0.68688014  0.53814003  0.86726106     0.09400
C5          C  0.58392259  0.37154571  0.87875600    -0.04300
Co6        Co  0.52786716  0.60046704  0.97622175     0.74200
N7          N  0.62122595  0.55724412  0.91850054    -0.23500
Co8        Co  0.61977483  0.49883403  0.97653698     0.74100
C9          C  0.63197331  0.38983193  0.85314266     0.45100
N10         N  0.45961539  0.41122593  0.91873724     0.03500
N11         N  0.61576145  0.43997744  0.91900004     0.03600
N12         N  0.59387652  0.63057592  0.07299624    -0.44300
H13         H  0.48738704  0.66812164  0.86779945     0.09400
N14         N  0.58628169  0.59600843  0.91827073     0.03900
N15         N  0.61541209  0.44059786  0.03468041     0.03700
C16         C  0.63039314  0.39179522  0.10178433     0.45300
N17         N  0.42469449  0.45000491  0.91893858    -0.23000
C18         C  0.46287704  0.63519540  0.07506976    -0.03900
N19         N  0.39629324  0.57451966  0.87950012    -0.44100
N20         N  0.64869721  0.43367165  0.07451258    -0.44300
C21         C  0.41524178  0.61648920  0.10115202     0.45000
N22         N  0.58648750  0.59657361  0.03388954     0.03900
N23         N  0.42474812  0.45015758  0.03440932    -0.23000
N24         N  0.46902119  0.60199662  0.91865939    -0.23500
N25         N  0.45957800  0.41131985  0.03452132     0.03500
H26         H  0.35929236  0.46944045  0.08582631     0.09400
H27         H  0.55741572  0.34018352  0.08585356     0.09500
N28         N  0.62142738  0.55782909  0.03394852    -0.23500
N29         N  0.57694205  0.40511635  0.91916109    -0.23100
N30         N  0.43054203  0.56725396  0.03440626     0.03900
C31         C  0.63525418  0.61113960  0.85128983     0.45300
C32         C  0.39173549  0.44360727  0.87794905    -0.04400
N33         N  0.57663089  0.40568062  0.03451202    -0.23100
H34         H  0.55872184  0.33848452  0.86891563     0.09500
N35         N  0.59329153  0.62933495  0.87850643    -0.44400
H36         H  0.35896268  0.46907519  0.86781534     0.09400
C37         C  0.41072860  0.39630575  0.10161050     0.45100
C38         C  0.46214687  0.63517307  0.87790853    -0.03900
Co39       Co  0.42624580  0.50869325  0.97662039     0.73800
N40         N  0.45250819  0.37783008  0.87902938    -0.44100
C41         C  0.63608197  0.61285944  0.10011284     0.45400
N42         N  0.39708863  0.57445045  0.07404869    -0.44100
Co43       Co  0.51809321  0.40702126  0.97669171     0.73900
C44         C  0.58290699  0.37290921  0.07565281    -0.04400
C45         C  0.65409670  0.56358936  0.87740822    -0.03900
N46         N  0.46932568  0.60215879  0.03413381    -0.23500
N47         N  0.64977914  0.43221687  0.87994476    -0.44200
H48         H  0.68770387  0.53970125  0.08474498     0.09400
C49         C  0.39194921  0.44387867  0.07555295    -0.04400
Cl50       Cl  0.52300324  0.50375261  0.97649612    -0.47400
C51         C  0.41049480  0.39603656  0.85186533     0.45200
H52         H  0.48829166  0.66802658  0.08511954     0.09400
N53         N  0.45260387  0.37801559  0.07432035    -0.44100
C54         C  0.40646542  0.88117106  0.58617665     0.45000
N55         N  0.45655712  0.94696324  0.56967953     0.03900
C56         C  0.46050244  0.10312484  0.34562482    -0.04000
H57         H  0.48565899  0.89558471  0.31266146     0.09400
C58         C  0.65181788  0.90570468  0.41628734    -0.04300
Co59       Co  0.42352826  0.00438874  0.47184676     0.74200
N60         N  0.46660934  0.94662093  0.37846505    -0.23500
Co61       Co  0.52531705  0.00426583  0.37996610     0.74100
C62         C  0.63331700  0.87995587  0.36838959     0.45100
N63         N  0.61266410  0.94631395  0.54028374     0.03500
N64         N  0.58380547  0.94639358  0.38409909     0.03600
N65         N  0.39458002  0.10191291  0.40626636    -0.44300
H66         H  0.35504033  0.89662775  0.51285189     0.09400
N67         N  0.42781087  0.94641873  0.41339791     0.03900
N68         N  0.58392234  0.06205555  0.38417427     0.03700
C69         C  0.63333153  0.12865662  0.36883093     0.45300
N70         N  0.57388056  0.94658360  0.57522924    -0.23000
C71         C  0.38927814  0.10337560  0.53664732    -0.03900
N72         N  0.44884582  0.90805915  0.60385101    -0.44100
N73         N  0.59123765  0.10161367  0.35064989    -0.44300
C74         C  0.40820496  0.12952882  0.58414357     0.45000
N75         N  0.42784763  0.06209923  0.41322410     0.03900
N76         N  0.57431313  0.06199934  0.57512295    -0.23000
N77         N  0.42166598  0.94697172  0.53085377    -0.23500
N78         N  0.61308949  0.06189567  0.54019188     0.03500
H79         H  0.55604257  0.11297705  0.64122601     0.09400
H80         H  0.68473196  0.11266801  0.44200541     0.09500
N81         N  0.46672697  0.06198120  0.37840433    -0.23500
N82         N  0.61862818  0.94644871  0.42297534    -0.23100
N83         N  0.45705708  0.06250488  0.56911243     0.03900
C84         C  0.41258538  0.87965708  0.36419640     0.45300
C85         C  0.58030073  0.90562463  0.60823726    -0.04400
N86         N  0.61878818  0.06181204  0.42301785    -0.23100
H87         H  0.68473223  0.89567453  0.44162741     0.09500
N88         N  0.39438045  0.90676897  0.40624975    -0.44400
H89         H  0.55484861  0.89553665  0.64105265     0.09400
C90         C  0.62921972  0.12831731  0.58956980     0.45100
C91         C  0.38812377  0.90657767  0.53800279    -0.03900
Co92       Co  0.51537226  0.00451488  0.57358208     0.73800
N93         N  0.64606665  0.90664590  0.54741616    -0.44100
C94         C  0.41292139  0.12918718  0.36440467     0.45400
N95         N  0.45012305  0.10230330  0.60240177    -0.44100
Co96       Co  0.61705702  0.00409638  0.48170154     0.73900
C97         C  0.65190829  0.10264381  0.41654799    -0.04400
C98         C  0.46019443  0.90569026  0.34546325    -0.03900
N99         N  0.42209742  0.06227465  0.53034462    -0.23500
N100        N  0.59123644  0.90708524  0.35031120    -0.44200
H101        H  0.48613015  0.11342089  0.31301286     0.09400
C102        C  0.58125970  0.10277696  0.60826208    -0.04400
Cl103      Cl  0.52031242  0.00428316  0.47677813    -0.47400
C104        C  0.62792726  0.87953685  0.58948018     0.45200
H105        H  0.35650580  0.11353539  0.51117693     0.09400
N106        N  0.64702042  0.10107548  0.54746436    -0.44100
C107        C  0.89732023  0.61799826  0.58357539     0.45000
N108        N  0.96374962  0.56834285  0.56823067     0.03900
C109        C  0.12030740  0.56465337  0.34423599    -0.04000
H110        H  0.91325578  0.54010197  0.31118241     0.09400
C111        C  0.92361226  0.37299850  0.41580379    -0.04300
Co112      Co  0.02195977  0.60139134  0.47082733     0.74200
N113        N  0.96410888  0.55845356  0.37736394    -0.23500
Co114      Co  0.02174848  0.49966350  0.37904636     0.74100
C115        C  0.89744970  0.39155764  0.36819369     0.45100
N116        N  0.96392025  0.41211352  0.53926554     0.03500
N117        N  0.96398439  0.44107850  0.38338351     0.03600
N118        N  0.11943890  0.63038826  0.40507666    -0.44300
H119        H  0.91353743  0.66934672  0.51042130     0.09400
N120        N  0.96419049  0.59730901  0.41221142     0.03900
N121        N  0.07971423  0.44130332  0.38338942     0.03700
C122        C  0.14715415  0.39293439  0.36853475     0.45300
N123        N  0.96372777  0.45100567  0.57406512    -0.23000
C124        C  0.12054750  0.63579114  0.53646061    -0.03900
N125        N  0.92418342  0.57578537  0.60172869    -0.44100
N126        N  0.11957874  0.43453874  0.35011530    -0.44300
C127        C  0.14612479  0.61708396  0.58441099     0.45000
N128        N  0.07978902  0.59698842  0.41231110     0.03900
N129        N  0.07914053  0.45100916  0.57465347    -0.23000
N130        N  0.96415633  0.60322567  0.52941566    -0.23500
N131        N  0.07957620  0.41223895  0.53973361     0.03500
H132        H  0.12945147  0.46972197  0.64113030     0.09400
H133        H  0.13171064  0.34161027  0.44187449     0.09500
N134        N  0.07945222  0.55824617  0.37735434    -0.23500
N135        N  0.96438434  0.40618843  0.42219042    -0.23100
N136        N  0.07939343  0.56804969  0.56857175     0.03900
C137        C  0.89785900  0.61336449  0.36266890     0.45300
C138        C  0.92266670  0.44437762  0.60692090    -0.04400
N139        N  0.07981776  0.40658930  0.42236280    -0.23100
H140        H  0.91367832  0.34018871  0.44129972     0.09500
N141        N  0.92503179  0.63123938  0.40478858    -0.44400
H142        H  0.91233269  0.46975967  0.63970892     0.09400
C143        C  0.14568905  0.39661602  0.58975210     0.45100
C144        C  0.92342640  0.63648629  0.53587213    -0.03900
Co145      Co  0.02146062  0.50969147  0.57266440     0.73800
N146        N  0.92450417  0.37840867  0.54636963    -0.44100
C147        C  0.14642634  0.61220606  0.36294473     0.45400
N148        N  0.11870931  0.57519814  0.60239683    -0.44100
Co149      Co  0.02197101  0.40797435  0.48094115     0.73900
C150        C  0.12119885  0.37408753  0.41618476    -0.04400
C151        C  0.92338637  0.56534961  0.34413725    -0.03900
N152        N  0.07957867  0.60286572  0.52968938    -0.23500
N153        N  0.92433812  0.43372320  0.34996084    -0.44200
H154        H  0.13030903  0.53922726  0.31137986     0.09400
C155        C  0.11967436  0.44438104  0.60814187    -0.04400
Cl156      Cl  0.02177152  0.50468516  0.47586731    -0.47400
C157        C  0.89701296  0.39651560  0.58819721     0.45200
H158        H  0.13085878  0.66861321  0.51112797     0.09400
N159        N  0.11896027  0.37859192  0.54737624    -0.44100
C160        C  0.76449901  0.32880031  0.30226172     0.05700
C161        C  0.74176931  0.28365445  0.32484194    -0.10500
C162        C  0.69645412  0.26120084  0.30230498     0.03200
C163        C  0.67384395  0.28399469  0.25720590    -0.09000
C164        C  0.69655568  0.32913721  0.23461522     0.05700
C165        C  0.74185542  0.35154072  0.25716551    -0.08400
H166        H  0.75937189  0.26597068  0.35969448     0.11300
H167        H  0.63884416  0.26657349  0.23965341     0.08800
H168        H  0.75951239  0.38640220  0.23959125     0.08700
C169        C  0.76627799  0.68179409  0.29965588     0.05700
C170        C  0.74394301  0.65937537  0.25427429    -0.10500
C171        C  0.69858336  0.68163449  0.23174618     0.03200
C172        C  0.67549183  0.72645308  0.25462925    -0.09000
C173        C  0.69781472  0.74898156  0.30004914     0.05700
C174        C  0.74321415  0.72660578  0.32255717    -0.08400
H175        H  0.76178384  0.62466702  0.23656525     0.11300
H176        H  0.64035580  0.74370376  0.23718676     0.08800
H177        H  0.76050905  0.74398185  0.35771505     0.08700
C178        C  0.69935241  0.32666538  0.72103240     0.05700
C179        C  0.74407101  0.34962842  0.69787802    -0.10500
C180        C  0.76597564  0.32764222  0.65200513     0.03200
C181        C  0.74308440  0.28261688  0.62927967    -0.09000
C182        C  0.69835708  0.25960316  0.65247672     0.05700
C183        C  0.67655095  0.28166597  0.69832422    -0.08400
H184        H  0.76173240  0.38448195  0.71546308     0.11300
H185        H  0.76000746  0.26555904  0.59378733     0.08800
H186        H  0.64191014  0.26389907  0.71624952     0.08700
C187        C  0.34668826  0.74686139  0.30121608     0.05700
C188        C  0.36977970  0.72429377  0.25623907    -0.10500
C189        C  0.34762603  0.67898757  0.23346026     0.03200
C190        C  0.30237874  0.65619423  0.25575047    -0.09000
C191        C  0.27925793  0.67874699  0.30073453     0.05700
C192        C  0.30143243  0.72406692  0.32346781    -0.08400
H193        H  0.40475333  0.74201826  0.23893465     0.11300
H194        H  0.28513529  0.62117997  0.23807172     0.08800
H195        H  0.28347231  0.74159511  0.35821831     0.08700
C196        C  0.34400043  0.74915843  0.65428859     0.05700
C197        C  0.36698078  0.72638001  0.69922182    -0.10500
C198        C  0.34509528  0.68059578  0.72138655     0.03200
C199        C  0.30016812  0.65760811  0.69854454    -0.09000
C200        C  0.27717944  0.68040967  0.65359682     0.05700
C201        C  0.29913381  0.72614282  0.63152861    -0.08400
H202        H  0.40175977  0.74417446  0.71683451     0.11300
H203        H  0.28319024  0.62218791  0.71565204     0.08800
H204        H  0.28136534  0.74376019  0.59672063     0.08700
C205        C  0.34708929  0.32977276  0.71932557     0.05700
C206        C  0.36949788  0.28472278  0.69626586    -0.10500
C207        C  0.34634517  0.26220692  0.65129109     0.03200
C208        C  0.30082097  0.28479058  0.62933690    -0.09000
C209        C  0.27839205  0.32984223  0.65234031     0.05700
C210        C  0.30156038  0.35233042  0.69732237    -0.08400
H211        H  0.40465771  0.26715840  0.71334925     0.11300
H212        H  0.28284665  0.26729612  0.59457786     0.08800
H213        H  0.28414846  0.38715598  0.71521682     0.08700
C214        C  0.69636692  0.67819672  0.71806465     0.05700
C215        C  0.67300486  0.72313865  0.69575417    -0.10500
C216        C  0.69508940  0.74635593  0.65059158     0.03200
C217        C  0.74049720  0.72447515  0.62765330    -0.09000
C218        C  0.76389966  0.67951896  0.64994872     0.05700
C219        C  0.74178468  0.65639139  0.69512532    -0.08400
H220        H  0.63797166  0.74015482  0.71364158     0.11300
H221        H  0.75771473  0.74252204  0.59279571     0.08800
H222        H  0.75998452  0.62170920  0.71250394     0.08700
C223        C  0.34830688  0.26338741  0.30319597     0.05700
C224        C  0.30329139  0.28634814  0.32575962    -0.10500
C225        C  0.28106746  0.33171661  0.30316644     0.03200
C226        C  0.30398047  0.35420352  0.25806320    -0.09000
C227        C  0.34900381  0.33123938  0.23545972     0.05700
C228        C  0.37118800  0.28587285  0.25807634    -0.08400
H229        H  0.28541124  0.26877198  0.36052729     0.11300
H230        H  0.28662277  0.38917122  0.24040101     0.08800
H231        H  0.40588788  0.26793835  0.24043628     0.08700
C232        C  0.23148139  0.35289458  0.62992216    -0.10700
C233        C  0.19223534  0.37252126  0.61139607    -0.12300
C234        C  0.19228389  0.63855213  0.60936374    -0.10700
C235        C  0.23101410  0.65710187  0.62995341    -0.12300
C236        C  0.19321767  0.63604915  0.34170053    -0.10700
C237        C  0.23251817  0.65560390  0.32329451    -0.12300
C238        C  0.19449307  0.37251277  0.34499718    -0.10700
C239        C  0.23415146  0.35450851  0.32576125    -0.12300
C240        C  0.81094029  0.65744547  0.62681219    -0.10700
C241        C  0.85042589  0.63924570  0.60735278    -0.12300
C242        C  0.85077008  0.37173032  0.60971482    -0.10700
C243        C  0.81203890  0.35132309  0.62848757    -0.12300
C244        C  0.81131684  0.35153810  0.32512333    -0.10700
C245        C  0.85065164  0.37015871  0.34443889    -0.12300
C246        C  0.85169850  0.63821813  0.34110383    -0.10700
C247        C  0.81281382  0.65856514  0.32262083    -0.12300
C248        C  0.67469019  0.21331077  0.62944303    -0.10700
C249        C  0.65414190  0.17450339  0.61101540    -0.12300
C250        C  0.36894676  0.21561831  0.62789079    -0.10700
C251        C  0.38718494  0.17636936  0.60808465    -0.12300
C252        C  0.38954713  0.17650704  0.34383183    -0.10700
C253        C  0.37057374  0.21624329  0.32577359    -0.12300
C254        C  0.67344689  0.21452569  0.32524301    -0.10700
C255        C  0.65476515  0.17531766  0.34478314    -0.11200
C256        C  0.38482245  0.83504380  0.61103333    -0.10700
C257        C  0.36647207  0.79602513  0.63124038    -0.12300
C258        C  0.67157047  0.79311084  0.62833431    -0.10700
C259        C  0.65178488  0.83253843  0.61038278    -0.12300
C260        C  0.67427016  0.79511142  0.32356431    -0.10700
C261        C  0.65519607  0.83382993  0.34370687    -0.12300
C262        C  0.38866147  0.83291337  0.34290715    -0.10700
C263        C  0.36928876  0.79363340  0.32426225    -0.12300
C264        C  0.67364290  0.35213183  0.18796419    -0.10700
C265        C  0.65421746  0.37069500  0.14866346    -0.12300
C266        C  0.65753843  0.63776396  0.14628808    -0.10700
C267        C  0.67584725  0.65823026  0.18519129    -0.12300
C268        C  0.37112239  0.65622682  0.18693924    -0.10700
C269        C  0.39106964  0.63780805  0.14780315    -0.12300
C270        C  0.37182426  0.35372747  0.18849870    -0.10700
C271        C  0.39003980  0.37281261  0.14885832    -0.12300
C272        C  0.67417437  0.65479355  0.76490227    -0.10700
C273        C  0.65617961  0.63503077  0.80432424    -0.12300
C274        C  0.65664002  0.36800359  0.80698302    -0.10700
C275        C  0.67657308  0.34936227  0.76794274    -0.12300
C276        C  0.38920707  0.37209177  0.80508609    -0.10700
C277        C  0.37045206  0.35261909  0.76587228    -0.12300
C278        C  0.38925855  0.63842152  0.80624794    -0.10700
C279        C  0.36883207  0.65730296  0.76756099    -0.12300
loop_ 
_geom_bond_atom_site_label_1 
_geom_bond_atom_site_label_2 
_geom_bond_distance 
_geom_bond_site_symmetry_2 
_ccdc_geom_bond_type 
C1           N19   1.347       .  A
C1           C38   1.454       .  S
C1          C278   1.435       .  S
N2           N19   1.325       .  A
N2           N24   1.321       .  A
N2          Co39   2.085       .  S
C3           N28   1.341       .  A
C3           C41   1.454       .  S
C3           H48   1.081       .  S
H4           C45   1.081       .  S
C5           N29   1.341       .  A
C5            C9   1.454       .  S
C5           H34   1.081       .  S
Co6          N24   2.083       .  S
Co6          N14   2.085       .  S
Co6          N46   2.084   1_556  S
Co6          N22   2.083   1_556  S
Co6         Cl50   2.452       .  S
N7           C45   1.341       .  A
N7           N14   1.321       .  A
N7           Co8   2.084       .  S
Co8          N11   2.086       .  S
Co8          N28   2.084   1_556  S
Co8          N15   2.086   1_556  S
Co8         Cl50   2.452       .  S
C9           N47   1.347       .  A
C9          C274   1.435       .  S
N10          N17   1.321       .  A
N10          N40   1.325       .  A
N10         Co43   2.086       .  S
N11          N29   1.321       .  A
N11          N47   1.325       .  A
N12          C41   1.346       .  A
N12          N22   1.325       .  A
H13          C38   1.081       .  S
N14          N35   1.325       .  A
N15          N33   1.321       .  A
N15          N20   1.325       .  A
C16          N20   1.347       .  A
C16          C44   1.453       .  S
C16         C265   1.434       .  S
N17          C32   1.341       .  A
N17         Co39   2.083       .  S
C18          N46   1.341       .  A
C18          C21   1.454       .  S
C18          H52   1.081       .  S
C21          N42   1.347       .  A
C21         C269   1.435       .  S
N22          N28   1.321       .  A
N23          C49   1.341       .  A
N23          N25   1.321       .  A
N23         Co39   2.082   1_554  S
N24          C38   1.341       .  A
N25          N53   1.325       .  A
N25         Co43   2.085   1_554  S
H26          C49   1.081       .  S
H27          C44   1.081       .  S
N29         Co43   2.083       .  S
N30          N42   1.325       .  A
N30          N46   1.321       .  A
N30         Co39   2.085   1_554  S
C31          N35   1.347       .  A
C31          C45   1.454       .  S
C31         C273   1.435       .  S
C32          C51   1.453       .  S
C32          H36   1.081       .  S
N33          C44   1.341       .  A
N33         Co43   2.082   1_554  S
C37          N53   1.347       .  A
C37          C49   1.453       .  S
C37         C271   1.434       .  S
Co39        Cl50   2.452       .  S
N40          C51   1.347       .  A
C41         C266   1.434       .  S
Co43        Cl50   2.452       .  S
C51         C276   1.435       .  S
C54          N72   1.347       .  A
C54          C91   1.454       .  S
C54         C256   1.435       .  S
N55          N72   1.325       .  A
N55          N77   1.321       .  A
N55         Co92   2.085   1_565  S
C56          N81   1.341       .  A
C56          C94   1.453       .  S
C56         H101   1.081       .  S
H57          C98   1.081       .  S
C58          N82   1.341       .  A
C58          C62   1.454       .  S
C58          H87   1.081       .  S
Co59         N77   2.084   1_545  S
Co59         N67   2.086   1_545  S
Co59         N99   2.083       .  S
Co59         N75   2.085       .  S
Co59       Cl103   2.453       .  S
N60          C98   1.341       .  A
N60          N67   1.321       .  A
N60         Co61   2.083   1_565  S
Co61         N64   2.085   1_545  S
Co61         N81   2.082       .  S
Co61         N68   2.086       .  S
Co61       Cl103   2.453       .  S
C62         N100   1.347       .  A
C62         C261   1.435       .  S
N63          N70   1.321       .  A
N63          N93   1.325       .  A
N63         Co96   2.085   1_565  S
N64          N82   1.321       .  A
N64         N100   1.325       .  A
N65          C94   1.347       .  A
N65          N75   1.325       .  A
H66          C91   1.081       .  S
N67          N88   1.325       .  A
N68          N86   1.321       .  A
N68          N73   1.325       .  A
C69          N73   1.347       .  A
C69          C97   1.453       .  S
C69         C255   1.435       .  S
N70          C85   1.341       .  A
N70         Co92   2.085   1_565  S
C71          N99   1.341       .  A
C71          C74   1.453       .  S
C71         H105   1.081       .  S
C74          N95   1.347       .  A
C74         C251   1.434       .  S
N75          N81   1.321       .  A
N76         C102   1.342       .  A
N76          N78   1.321       .  A
N76         Co92   2.084       .  S
N77          C91   1.341       .  A
N78         N106   1.325       .  A
N78         Co96   2.084       .  S
H79         C102   1.081       .  S
H80          C97   1.081       .  S
N82         Co96   2.083   1_565  S
N83          N95   1.325       .  A
N83          N99   1.321       .  A
N83         Co92   2.085       .  S
C84          N88   1.347       .  A
C84          C98   1.453       .  S
C84         C262   1.434       .  S
C85         C104   1.454       .  S
C85          H89   1.081       .  S
N86          C97   1.341       .  A
N86         Co96   2.084       .  S
C90         N106   1.347       .  A
C90         C102   1.454       .  S
C90         C249   1.435       .  S
Co92       Cl103   2.452       .  S
N93         C104   1.347       .  A
C94         C252   1.434       .  S
Co96       Cl103   2.452       .  S
C104        C259   1.435       .  S
C107        N125   1.347       .  A
C107        C144   1.453       .  S
C107        C241   1.435       .  S
N108        N125   1.325       .  A
N108        N130   1.321       .  A
N108       Co145   2.086   1_655  S
C109        N134   1.341       .  A
C109        C147   1.453       .  S
C109        H154   1.081       .  S
H110        C151   1.081       .  S
C111        N135   1.341       .  A
C111        C115   1.453       .  S
C111        H140   1.081       .  S
Co112       N130   2.083   1_455  S
Co112       N120   2.085   1_455  S
Co112       N152   2.085       .  S
Co112       N128   2.085       .  S
Co112      Cl156   2.452       .  S
N113        C151   1.341       .  A
N113        N120   1.321       .  A
N113       Co114   2.084   1_655  S
Co114       N117   2.086   1_455  S
Co114       N134   2.082       .  S
Co114       N121   2.085       .  S
Co114      Cl156   2.453       .  S
C115        N153   1.347       .  A
C115        C245   1.434       .  S
N116        N123   1.321       .  A
N116        N146   1.325       .  A
N116       Co149   2.085   1_655  S
N117        N135   1.321       .  A
N117        N153   1.325       .  A
N118        C147   1.347       .  A
N118        N128   1.325       .  A
H119        C144   1.081       .  S
N120        N141   1.325       .  A
N121        N139   1.321       .  A
N121        N126   1.325       .  A
C122        N126   1.347       .  A
C122        C150   1.453       .  S
C122        C238   1.434       .  S
N123        C138   1.341       .  A
N123       Co145   2.084   1_655  S
C124        N152   1.341       .  A
C124        C127   1.454       .  S
C124        H158   1.081       .  S
C127        N148   1.347       .  A
C127        C234   1.435       .  S
N128        N134   1.321       .  A
N129        C155   1.341       .  A
N129        N131   1.321       .  A
N129       Co145   2.083       .  S
N130        C144   1.341       .  A
N131        N159   1.325       .  A
N131       Co149   2.086       .  S
H132        C155   1.081       .  S
H133        C150   1.081       .  S
N135       Co149   2.082   1_655  S
N136        N148   1.325       .  A
N136        N152   1.321       .  A
N136       Co145   2.084       .  S
C137        N141   1.347       .  A
C137        C151   1.454       .  S
C137        C246   1.435       .  S
C138        C157   1.454       .  S
C138        H142   1.081       .  S
N139        C150   1.341       .  A
N139       Co149   2.083       .  S
C143        N159   1.347       .  A
C143        C155   1.453       .  S
C143        C233   1.435       .  S
Co145      Cl156   2.452       .  S
N146        C157   1.347       .  A
C147        C236   1.434       .  S
Co149      Cl156   2.452       .  S
C157        C242   1.435       .  S
C160        C244   1.439       .  S
C160        C161   1.401       .  A
C160        C165   1.401       .  A
C161        H166   1.085       .  S
C161        C162   1.401       .  A
C162        C254   1.440       .  S
C162        C163   1.401       .  A
C163        H167   1.085       .  S
C163        C164   1.401       .  A
C164        C264   1.438       .  S
C164        C165   1.401       .  A
C165        H168   1.085       .  S
C169        C247   1.439       .  S
C169        C170   1.400       .  A
C169        C174   1.401       .  A
C170        H175   1.085       .  S
C170        C171   1.400       .  A
C171        C267   1.439       .  S
C171        C172   1.401       .  A
C172        H176   1.085       .  S
C172        C173   1.402       .  A
C173        C260   1.440       .  S
C173        C174   1.402       .  A
C174        H177   1.085       .  S
C178        C275   1.439       .  S
C178        C179   1.401       .  A
C178        C183   1.400       .  A
C179        H184   1.085       .  S
C179        C180   1.401       .  A
C180        C243   1.440       .  S
C180        C181   1.402       .  A
C181        H185   1.085       .  S
C181        C182   1.402       .  A
C182        C248   1.439       .  S
C182        C183   1.401       .  A
C183        H186   1.085       .  S
C187        C263   1.439       .  S
C187        C188   1.401       .  A
C187        C192   1.401       .  A
C188        H193   1.085       .  S
C188        C189   1.401       .  A
C189        C268   1.439       .  S
C189        C190   1.401       .  A
C190        H194   1.085       .  S
C190        C191   1.401       .  A
C191        C237   1.438       .  S
C191        C192   1.401       .  A
C192        H195   1.085       .  S
C196        C257   1.439       .  S
C196        C197   1.401       .  A
C196        C201   1.400       .  A
C197        H202   1.085       .  S
C197        C198   1.402       .  A
C198        C279   1.440       .  S
C198        C199   1.402       .  A
C199        H203   1.085       .  S
C199        C200   1.402       .  A
C200        C235   1.439       .  S
C200        C201   1.400       .  A
C201        H204   1.085       .  S
C205        C277   1.439       .  S
C205        C206   1.401       .  A
C205        C210   1.401       .  A
C206        H211   1.085       .  S
C206        C207   1.401       .  A
C207        C250   1.438       .  S
C207        C208   1.401       .  A
C208        H212   1.085       .  S
C208        C209   1.401       .  A
C209        C232   1.439       .  S
C209        C210   1.401       .  A
C210        H213   1.085       .  S
C214        C272   1.439       .  S
C214        C215   1.401       .  A
C214        C219   1.401       .  A
C215        H220   1.085       .  S
C215        C216   1.401       .  A
C216        C258   1.440       .  S
C216        C217   1.401       .  A
C217        H221   1.085       .  S
C217        C218   1.402       .  A
C218        C240   1.439       .  S
C218        C219   1.401       .  A
C219        H222   1.085       .  S
C223        C253   1.438       .  S
C223        C224   1.401       .  A
C223        C228   1.401       .  A
C224        H229   1.085       .  S
C224        C225   1.401       .  A
C225        C239   1.439       .  S
C225        C226   1.401       .  A
C226        H230   1.085       .  S
C226        C227   1.401       .  A
C227        C270   1.438       .  S
C227        C228   1.401       .  A
C228        H231   1.085       .  S
C232        C233   1.205       .  T
C234        C235   1.205       .  T
C236        C237   1.205       .  T
C238        C239   1.205       .  T
C240        C241   1.205       .  T
C242        C243   1.206       .  T
C244        C245   1.205       .  T
C246        C247   1.205       .  T
C248        C249   1.205       .  T
C250        C251   1.205       .  T
C252        C253   1.205       .  T
C254        C255   1.206       .  T
C256        C257   1.205       .  T
C258        C259   1.206       .  T
C260        C261   1.206       .  T
C262        C263   1.205       .  T
C264        C265   1.205       .  T
C266        C267   1.205       .  T
C268        C269   1.205       .  T
C270        C271   1.205       .  T
C272        C273   1.205       .  T
C274        C275   1.205       .  T
C276        C277   1.205       .  T
C278        C279   1.206       .  T
