geometry optimzed in LAMMPS
_audit_creation_date              2020-12-01 
_audit_creation_method            'lammps2cif' 
_symmetry_space_group_name_H-M    'P1' 
_symmetry_Int_Tables_number       1 
_symmetry_cell_setting            triclinic 
loop_ 
_symmetry_equiv_pos_as_xyz 
  x,y,z 
_cell_length_a                    27.98098372 
_cell_length_b                    28.025999513843963 
_cell_length_c                    30.275671345892512 
_cell_angle_alpha                 90.1777594569433 
_cell_angle_beta                  90.10938182262605 
_cell_angle_gamma                 82.73383758467062 
loop_ 
_atom_site_label 
_atom_site_type_symbol 
_atom_site_fract_x 
_atom_site_fract_y 
_atom_site_fract_z 
_atom_site_charge 
C1          C  0.15667067  0.99111913  0.10009469     0.42600
N2          N  0.08331809  0.99044859  0.08021000     0.01500
C3          C  0.99926700  0.89275528  0.88904241    -0.06400
H4          H  0.10019154  0.03152029  0.86094366     0.07000
C5          C  0.97714120  0.14394659  0.94616858    -0.06700
Co6        Co  0.07592254  0.93169536  0.99840040     0.74200
N7          N  0.08253321  0.99401521  0.91951145    -0.25900
Co8        Co  0.00783971  0.99792107  0.91907934     0.74100
C9          C  0.00614247  0.14631513  0.90633309     0.42700
N10         N  0.97611093  0.09541452  0.05133591     0.01100
N11         N  0.00121108  0.07254818  0.92147587     0.01200
N12         N  0.04443060  0.85079493  0.94119912    -0.46800
H13         H  0.18502937  0.94693696  0.03912788     0.07000
N14         N  0.10894638  0.96900881  0.94965906     0.01500
N15         N  0.93315551  0.00187933  0.92064826     0.01200
C16         C  0.85973003  0.99534499  0.90489470     0.42800
N17         N  0.00167359  0.06997016  0.08170769    -0.25400
C18         C  0.04136293  0.84889958  0.05325827    -0.06300
N19         N  0.11061851  0.00569850  0.11174097    -0.46500
N20         N  0.90555882  0.98352391  0.89118243    -0.46700
C21         C  0.01072630  0.84529853  0.09197217     0.42600
N22         N  0.04119056  0.89770277  0.94851509     0.01500
N23         N  0.93363964  0.99920093  0.08009914    -0.25400
N24         N  0.10876529  0.96650269  0.04872824    -0.25900
N25         N  0.90768665  0.02469973  0.05003554     0.01100
H26         H  0.91512365  0.95929264  0.13685924     0.07000
H27         H  0.83188575  0.04229297  0.96431198     0.07000
N28         N  0.01513929  0.92304066  0.91839807    -0.25900
N29         N  0.97626430  0.09682983  0.95302902    -0.25600
N30         N  0.01490395  0.91984177  0.07774669     0.01500
C31         C  0.16032334  0.99479520  0.90592542     0.42900
C32         C  0.01786455  0.10033066  0.11086510    -0.06800
N33         N  0.90804592  0.02618171  0.95208579    -0.25600
H34         H  0.95847055  0.17274269  0.96572400     0.07000
N35         N  0.15578066  0.96771178  0.94224938    -0.46800
H36         H  0.03873417  0.08959051  0.14008453     0.07000
C37         C  0.85535810  0.99778819  0.09213683     0.42700
C38         C  0.15563007  0.96546849  0.05815492    -0.06300
Co39       Co  0.00845451  0.99483182  0.08091111     0.73800
N40         N  0.97343128  0.14231710  0.05831917    -0.46500
C41         C  0.01887352  0.84463017  0.90418611     0.43000
N42         N  0.99641085  0.89085512  0.10566760    -0.46500
Co43       Co  0.94118955  0.06166436  0.00157700     0.73900
C44         C  0.86113783  0.02432102  0.94482510    -0.06800
C45         C  0.11173232  0.01162745  0.89044026    -0.06400
N46         N  0.04112503  0.89614314  0.04668636    -0.25900
N47         N  0.01899358  0.10076286  0.89243034    -0.46700
H48         H  0.97842280  0.90342638  0.85978089     0.07000
C49         C  0.90390333  0.98070246  0.10809292    -0.06800
Cl50       Cl  0.00841593  0.99656143  0.00001819    -0.49800
C51         C  0.99904196  0.14862581  0.09524280     0.42700
H52         H  0.06199264  0.82121244  0.03391638     0.07000
N53         N  0.86075036  0.02498755  0.05611505    -0.46500
C54         C  0.99054030  0.54382793  0.26642821     0.80400
N55         N  0.99171992  0.50152661  0.24421096    -0.77900
C56         C  0.99369736  0.45928415  0.26656755     0.82800
N57         N  0.99436664  0.45992079  0.31151210    -0.77900
C58         C  0.99219316  0.50219276  0.33411241     0.82900
N59         N  0.99079102  0.54383854  0.31120349    -0.79600
C60         C  0.99736459  0.53631632  0.73626972     0.80400
N61         N  0.99647447  0.53724193  0.69134493    -0.77900
C62         C  0.99673474  0.49583064  0.66773196     0.82800
N63         N  0.99974419  0.45323164  0.68939008    -0.77900
C64         C  0.00120642  0.45186958  0.73414220     0.82900
N65         N  0.99964514  0.49345211  0.75749643    -0.79600
C66         C  0.46458366  0.99974746  0.26716520     0.80400
N67         N  0.50608220  0.99206151  0.24349454    -0.77900
C68         C  0.54960860  0.98534279  0.26415663     0.82800
N69         N  0.55130238  0.98682816  0.30904712    -0.77900
C70         C  0.51008483  0.99443383  0.33312736     0.82900
N71         N  0.46708506  0.00025866  0.31189733    -0.79600
C72         C  0.47051094  0.99369806  0.73411803     0.80400
N73         N  0.47014807  0.99197161  0.68912237    -0.77900
C74         C  0.51187392  0.99087146  0.66580887     0.82800
N75         N  0.55403408  0.99187570  0.68779889    -0.77900
C76         C  0.55466452  0.99451917  0.73244090     0.82900
N77         N  0.51298703  0.99550776  0.75526473    -0.79600
C78         C  0.51194669  0.99456235  0.38205374    -0.11800
C79         C  0.47639761  0.02204902  0.40803183     0.03600
C80         C  0.47887176  0.01940305  0.45404980    -0.12400
C81         C  0.51619436  0.99009758  0.47510793     0.18500
C82         C  0.55176280  0.96284168  0.44959495    -0.09400
C83         C  0.54961128  0.96546634  0.40348143    -0.02400
H84         H  0.45161089  0.04072898  0.47368692     0.05000
C85         C  0.51680401  0.98869109  0.52378979     0.20500
H86         H  0.57696997  0.94377303  0.38431784     0.10200
C87         C  0.48346869  0.96399653  0.54584688    -0.15700
C88         C  0.48102114  0.96405221  0.59201309     0.03200
C89         C  0.51221369  0.98965972  0.61689040    -0.11100
C90         C  0.54580350  0.01411397  0.59445881    -0.01100
C91         C  0.54810307  0.01398202  0.54835514    -0.06300
H92         H  0.45930771  0.94445512  0.52696844     0.06200
H93         H  0.56993736  0.03412225  0.61282333     0.09600
Br94       Br  0.60285321  0.92043085  0.47626966    -0.06000
Br95       Br  0.42479156  0.06595584  0.38368670    -0.02900
Br96       Br  0.43635433  0.92614719  0.61864126     0.01400
Br97       Br  0.59326751  0.05022679  0.52027188    -0.04400
C98         C  0.99302298  0.50257526  0.38322388    -0.11800
C99         C  0.97137262  0.54216380  0.40852124     0.03600
C100        C  0.97385582  0.54066834  0.45468045    -0.12400
C101        C  0.99761524  0.50054740  0.47662977     0.18500
C102        C  0.01905084  0.46109621  0.45170983    -0.09400
C103        C  0.01650876  0.46227265  0.40555061    -0.02400
H104        H  0.95653461  0.57077735  0.47367917     0.05000
C105        C  0.99775903  0.49973053  0.52553861     0.20500
H106        H  0.03367363  0.43170674  0.38705917     0.10200
C107        C  0.97196473  0.46720760  0.54745751    -0.15700
C108        C  0.97082943  0.46540012  0.59360006     0.03200
C109        C  0.99566016  0.49703175  0.61882322    -0.11100
C110        C  0.02067196  0.53024474  0.59671129    -0.01100
C111        C  0.02211311  0.53160490  0.55053550    -0.06300
H112        H  0.95232683  0.44319940  0.52844031     0.06200
H113        H  0.04016907  0.55460427  0.61543278     0.09600
Br114      Br  0.05361623  0.40548657  0.47923742    -0.06000
Br115      Br  0.93518840  0.59835583  0.38316916    -0.02900
Br116      Br  0.93242187  0.42074519  0.61962330    -0.00100
Br117      Br  0.05955971  0.57610960  0.52316709    -0.04400
C118        C  0.00442807  0.40552159  0.75727313    -0.11800
C119        C  0.04227053  0.36842387  0.74890899     0.03600
C120        C  0.04452658  0.32507035  0.77209546    -0.12400
C121        C  0.00900511  0.31785898  0.80312008     0.18500
C122        C  0.97066942  0.35457689  0.81074290    -0.09400
C123        C  0.96896320  0.39824421  0.78828250    -0.02400
H124        H  0.07424103  0.29708529  0.76624559     0.05000
C125        C  0.01282789  0.27251794  0.82831622     0.20500
H126        H  0.93937410  0.42634875  0.79446995     0.10200
C127        C  0.02269920  0.27354227  0.87372091    -0.15700
C128        C  0.02221143  0.23239703  0.89959842     0.03200
C129        C  0.01176470  0.18928386  0.87990852    -0.11100
C130        C  0.00453965  0.18763611  0.83404283    -0.01100
C131        C  0.00474308  0.22890169  0.80823676    -0.06300
H132        H  0.03002870  0.30680441  0.88919221     0.06200
H133        H  0.99676615  0.15462222  0.81845107     0.09600
Br134      Br  0.91892978  0.34582559  0.85024419    -0.06000
Br135      Br  0.09305961  0.37623788  0.70806635    -0.02900
Br136      Br  0.03808216  0.23671113  0.96105898    -0.00100
Br137      Br  0.99067831  0.22472204  0.74639675    -0.04400
C138        C  0.01543259  0.79792707  0.88158258    -0.11800
C139        C  0.04654282  0.75525671  0.89137963     0.03600
C140        C  0.04236108  0.71289934  0.86776670    -0.12400
C141        C  0.00799809  0.71196134  0.83423306     0.18500
C142        C  0.97683232  0.75392840  0.82458865    -0.09400
C143        C  0.98059294  0.79626851  0.84818196    -0.02400
H144        H  0.06655773  0.68059023  0.87514529     0.05000
C145        C  0.00555553  0.66703761  0.80916885     0.20500
H146        H  0.95598876  0.82801322  0.84011425     0.10200
C147        C  0.97600551  0.63382387  0.82443282    -0.15700
C148        C  0.97239284  0.59120164  0.80108500     0.03200
C149        C  0.99879333  0.58134905  0.76163660    -0.11100
C150        C  0.02805318  0.61501708  0.74633642    -0.01100
C151        C  0.03180108  0.65740512  0.76989575    -0.06300
H152        H  0.95530216  0.64136613  0.85441790     0.06200
H153        H  0.04876249  0.60796334  0.71630472     0.09600
Br154      Br  0.92898304  0.75501245  0.77901443    -0.06000
Br155      Br  0.09714695  0.75174729  0.93467199    -0.02900
Br156      Br  0.92849536  0.54962977  0.82325266    -0.00100
Br157      Br  0.07338054  0.70107756  0.74751583    -0.04400
C158        C  0.99704796  0.41310868  0.24177414    -0.11800
C159        C  0.97657295  0.37271680  0.25745192     0.03600
C160        C  0.98069070  0.33028181  0.23245830    -0.12400
C161        C  0.00485267  0.32691258  0.19184415     0.18500
C162        C  0.02526191  0.36692888  0.17607887    -0.09400
C163        C  0.02121671  0.40946267  0.20091837    -0.02400
H164        H  0.96414376  0.29982408  0.24442957     0.05000
C165        C  0.00629302  0.28202277  0.16566623     0.20500
H166        H  0.03752572  0.43974661  0.18832188     0.10200
C167        C  0.97843401  0.28196248  0.12720419    -0.15700
C168        C  0.97602626  0.23956395  0.10313991     0.03200
C169        C  0.00207659  0.19561822  0.11768675    -0.11100
C170        C  0.03093693  0.19641764  0.15578574    -0.01100
C171        C  0.03301684  0.23889498  0.17972434    -0.06300
H172        H  0.95763345  0.31506250  0.11632009     0.06200
H173        H  0.05189079  0.16385402  0.16754337     0.09600
Br174      Br  0.05994569  0.36469107  0.12133959    -0.06000
Br175      Br  0.93952716  0.37362922  0.31085436    -0.02900
Br176      Br  0.93506685  0.24548580  0.05190742    -0.00100
Br177      Br  0.07323997  0.23640264  0.23126880    -0.04400
C178        C  0.98898682  0.58956251  0.24216751    -0.11800
C179        C  0.02024185  0.62359955  0.25290523     0.03600
C180        C  0.01821964  0.66627250  0.22883263    -0.12400
C181        C  0.98478729  0.67639726  0.19447887     0.18500
C182        C  0.95286263  0.64279886  0.18429076    -0.09400
C183        C  0.95552486  0.59957189  0.20778674    -0.02400
H184        H  0.04357592  0.69129933  0.23636494     0.05000
C185        C  0.98673862  0.72031959  0.16771184     0.20500
H186        H  0.93089557  0.57401803  0.19964264     0.10200
C187        C  0.99796188  0.71542490  0.12270977    -0.15700
C188        C  0.00384903  0.75545549  0.09675727     0.03200
C189        C  0.00074266  0.80167979  0.11637467    -0.11100
C190        C  0.98789673  0.80657930  0.16124870    -0.01100
C191        C  0.98058449  0.76657702  0.18675564    -0.06300
H192        H  0.00222264  0.68010191  0.10763233     0.06200
H193        H  0.98402245  0.84160486  0.17685793     0.09600
Br194      Br  0.90397735  0.65498825  0.13973663    -0.06000
Br195      Br  0.06877098  0.61239864  0.29791804    -0.02900
Br196      Br  0.01198735  0.74359482  0.03461983    -0.00100
Br197      Br  0.96102757  0.77716759  0.24710679    -0.04400
C198        C  0.81694867  0.98844411  0.87860301    -0.11800
C199        C  0.77441494  0.97676659  0.89841775     0.03600
C200        C  0.73341996  0.97439283  0.87254215    -0.12400
C201        C  0.73398077  0.98378239  0.82710507     0.18500
C202        C  0.77666308  0.99477601  0.80718082    -0.09400
C203        C  0.81794397  0.99625998  0.83288532    -0.02400
H204        H  0.70064438  0.96593764  0.88802599     0.05000
C205        C  0.68854542  0.98596755  0.80211571     0.20500
H206        H  0.85031547  0.00579672  0.81741460     0.10200
C207        C  0.65121714  0.02248030  0.81247408    -0.15700
C208        C  0.60734935  0.02609214  0.78997321     0.03200
C209        C  0.60065451  0.99302786  0.75610182    -0.11100
C210        C  0.63805359  0.95655028  0.74563521    -0.01100
C211        C  0.68156420  0.95230190  0.76887016    -0.06300
H212        H  0.65637397  0.04842244  0.83812253     0.06200
H213        H  0.63283259  0.93038538  0.72022443     0.09600
Br214      Br  0.77928690  0.01204578  0.74599163    -0.06000
Br215      Br  0.77047635  0.96228758  0.96016394    -0.02900
Br216      Br  0.55881469  0.07806648  0.80549178    -0.00100
Br217      Br  0.72907524  0.89854441  0.75583636    -0.04400
C218        C  0.42507117  0.99362254  0.75981447    -0.11800
C219        C  0.42468804  0.98144276  0.80531358     0.03600
C220        C  0.38096505  0.98335651  0.82791504    -0.12400
C221        C  0.33680283  0.99491605  0.80618593     0.18500
C222        C  0.33684636  0.00622230  0.76085277    -0.09400
C223        C  0.38056453  0.00582795  0.73828466    -0.02400
H224        H  0.38138156  0.97469367  0.86277706     0.05000
C225        C  0.29142940  0.99457882  0.83159303     0.20500
H226        H  0.37954297  0.01493741  0.70352754     0.10200
C227        C  0.25894532  0.03693414  0.83499489    -0.15700
C228        C  0.21615555  0.03798560  0.85914613     0.03200
C229        C  0.20576772  0.99631943  0.88139745    -0.11100
C230        C  0.23881525  0.95436789  0.87891204    -0.01100
C231        C  0.28098614  0.95300672  0.85394969    -0.06300
H232        H  0.26703532  0.06939527  0.81895026     0.06200
H233        H  0.23112825  0.92196621  0.89538714     0.09600
Br234      Br  0.27832225  0.02024153  0.72758735    -0.06000
Br235      Br  0.48120218  0.95820082  0.83901226    -0.02900
Br236      Br  0.17483086  0.09805058  0.86232250    -0.00100
Br237      Br  0.32163778  0.89260177  0.84972679    -0.04400
C238        C  0.80889051  0.99050756  0.11346307    -0.11800
C239        C  0.76472470  0.01930523  0.10385450     0.03600
C240        C  0.72325395  0.01317161  0.12797145    -0.12400
C241        C  0.72447371  0.97870993  0.16148504     0.18500
C242        C  0.76748926  0.94838550  0.16961199    -0.09400
C243        C  0.80909785  0.95450616  0.14585778    -0.02400
H244        H  0.69001912  0.03637556  0.12135237     0.05000
C245        C  0.68113073  0.97696323  0.18903825     0.20500
H246        H  0.84186293  0.93095332  0.15318867     0.10200
C247        C  0.64186344  0.95631232  0.17204330    -0.15700
C248        C  0.59921053  0.95695767  0.19639727     0.03200
C249        C  0.59503456  0.97972386  0.23827054    -0.11100
C250        C  0.63515387  0.99904316  0.25557318    -0.01100
C251        C  0.67782378  0.99778831  0.23143105    -0.06300
H252        H  0.64450204  0.93950197  0.13970614     0.06200
H253        H  0.63300154  0.01646317  0.28764027     0.09600
Br254      Br  0.77101925  0.89830834  0.21300349    -0.06000
Br255      Br  0.75787969  0.06917004  0.06007695    -0.02900
Br256      Br  0.54957231  0.92352489  0.17166852    -0.00100
Br257      Br  0.73005741  0.02669020  0.25701680    -0.04400
C258        C  0.41664592  0.00512990  0.24523857    -0.11800
C259        C  0.40915656  0.02210325  0.20144784     0.03600
C260        C  0.36371978  0.02300077  0.18186645    -0.12400
C261        C  0.32510381  0.00817586  0.20523731     0.18500
C262        C  0.33155013  0.99376267  0.24940405    -0.09400
C263        C  0.37694256  0.99228995  0.26902187    -0.02400
H264        H  0.35858061  0.03471739  0.14792125     0.05000
C265        C  0.27985811  0.00382085  0.18152177     0.20500
H266        H  0.38129369  0.97987589  0.30278556     0.10200
C267        C  0.27366858  0.95934152  0.16271563    -0.15700
C268        C  0.23323274  0.95410535  0.13695322     0.03200
C269        C  0.19849518  0.99427727  0.12908823    -0.11100
C270        C  0.20363829  0.03830231  0.14969258    -0.01100
C271        C  0.24412611  0.04331924  0.17573196    -0.06300
H272        H  0.30064183  0.92854381  0.16801447     0.06200
H273        H  0.17660889  0.06910891  0.14476225     0.09600
Br274      Br  0.27948959  0.97514559  0.28380487    -0.06000
Br275      Br  0.45799482  0.04666068  0.16681717    -0.02900
Br276      Br  0.22614857  0.89049473  0.11636895    -0.00100
Br277      Br  0.24944928  0.10438783  0.20273256    -0.04400
loop_ 
_geom_bond_atom_site_label_1 
_geom_bond_atom_site_label_2 
_geom_bond_distance 
_geom_bond_site_symmetry_2 
_ccdc_geom_bond_type 
C1           N19   1.349   1_565  A
C1           C38   1.459       .  S
C1          C269   1.473       .  S
N2           N19   1.325   1_565  A
N2           N24   1.320       .  A
N2          Co39   2.083       .  S
C3           N28   1.340   1_655  A
C3           C41   1.465   1_655  S
C3           H48   1.082       .  S
H4           C45   1.081       .  S
C5           N29   1.341       .  A
C5            C9   1.461   1_655  S
C5           H34   1.080       .  S
Co6          N24   2.081   1_556  S
Co6          N14   2.094       .  S
Co6          N46   2.083   1_556  S
Co6          N22   2.086       .  S
Co6         Cl50   2.451   1_556  S
N7           C45   1.339   1_565  A
N7           N14   1.319       .  A
N7           Co8   2.079       .  S
Co8          N11   2.077   1_565  S
Co8          N28   2.083       .  S
Co8          N15   2.079   1_465  S
Co8         Cl50   2.451   1_556  S
C9           N47   1.348       .  A
C9          C129   1.473       .  S
N10          N17   1.318   1_655  A
N10          N40   1.323       .  A
N10         Co43   2.083       .  S
N11          N29   1.320   1_455  A
N11          N47   1.324       .  A
N12          C41   1.351       .  A
N12          N22   1.324       .  A
H13          C38   1.082       .  S
N14          N35   1.326       .  A
N15          N33   1.319       .  A
N15          N20   1.324   1_545  A
C16          N20   1.349       .  A
C16          C44   1.458   1_565  S
C16         C198   1.469       .  S
N17          C32   1.342       .  A
N17         Co39   2.090   1_545  S
C18          N46   1.339       .  A
C18          C21   1.465       .  S
C18          H52   1.079       .  S
C21          N42   1.353   1_455  A
C21         C189   1.487       .  S
N22          N28   1.318       .  A
N23          C49   1.339       .  A
N23          N25   1.318   1_565  A
N23         Co39   2.082   1_655  S
N24          C38   1.338       .  A
N25          N53   1.326       .  A
N25         Co43   2.089       .  S
H26          C49   1.082       .  S
H27          C44   1.080       .  S
N29         Co43   2.087   1_556  S
N30          N42   1.325   1_455  A
N30          N46   1.319       .  A
N30         Co39   2.088       .  S
C31          N35   1.353       .  A
C31          C45   1.459   1_565  S
C31         C229   1.479       .  S
C32          C51   1.468   1_455  S
C32          H36   1.081       .  S
N33          C44   1.338       .  A
N33         Co43   2.077   1_556  S
C37          N53   1.352   1_565  A
C37          C49   1.464       .  S
C37         C238   1.490       .  S
Co39        Cl50   2.450       .  S
N40          C51   1.350       .  A
C41         C138   1.489       .  S
Co43        Cl50   2.450   1_645  S
C51         C169   1.492   1_655  S
C54          N55   1.358       .  A
C54          N59   1.356       .  A
C54         C178   1.475       .  S
N55          C56   1.361       .  A
C56          N57   1.361       .  A
C56         C158   1.487       .  S
N57          C58   1.361       .  A
C58          N59   1.356       .  A
C58          C98   1.487       .  S
C60          N61   1.361       .  A
C60          N65   1.358       .  A
C60         C149   1.480       .  S
N61          C62   1.360       .  A
C62          N63   1.357       .  A
C62         C109   1.481       .  S
N63          C64   1.356   1_655  A
C64          N65   1.357   1_455  A
C64         C118   1.470       .  S
C66          N67   1.359       .  A
C66          N71   1.356   1_565  A
C66         C258   1.486   1_565  S
N67          C68   1.360       .  A
C68          N69   1.361       .  A
C68         C249   1.486       .  S
N69          C70   1.359       .  A
C70          N71   1.355   1_565  A
C70          C78   1.482       .  S
C72          N73   1.363       .  A
C72          N77   1.355       .  A
C72         C218   1.492       .  S
N73          C74   1.362       .  A
C74          N75   1.357       .  A
C74          C89   1.481       .  S
N75          C76   1.354       .  A
C76          N77   1.354       .  A
C76         C209   1.468       .  S
C78          C79   1.417   1_565  A
C78          C83   1.407       .  A
C79          C80   1.397       .  A
C79         Br95   1.922       .  S
C80          H84   1.085       .  S
C80          C81   1.398   1_545  A
C81          C85   1.475       .  S
C81          C82   1.406       .  A
C82          C83   1.399       .  A
C82         Br94   1.918       .  S
C83          H86   1.084       .  S
C85          C87   1.401       .  A
C85          C91   1.405   1_565  A
C87          H92   1.083       .  S
C87          C88   1.400       .  A
C88          C89   1.413       .  A
C88         Br96   1.920       .  S
C89          C90   1.408   1_565  A
C90          H93   1.083       .  S
C90          C91   1.397       .  A
C91         Br97   1.920       .  S
C98          C99   1.418       .  A
C98         C103   1.407   1_655  A
C99         C100   1.400       .  A
C99        Br115   1.922       .  S
C100        H104   1.083       .  S
C100        C101   1.401       .  A
C101        C105   1.481       .  S
C101        C102   1.407   1_655  A
C102        C103   1.399       .  A
C102       Br114   1.919       .  S
C103        H106   1.083       .  S
C105        C107   1.401       .  A
C105        C111   1.408   1_655  A
C107        H112   1.084       .  S
C107        C108   1.399       .  A
C108        C109   1.415       .  A
C108       Br116   1.921       .  S
C109        C110   1.405   1_655  A
C110        H113   1.084       .  S
C110        C111   1.399       .  A
C111       Br117   1.918       .  S
C118        C119   1.410       .  A
C118        C123   1.401   1_455  A
C119        C120   1.400       .  A
C119       Br135   1.919       .  S
C120        H124   1.083       .  S
C120        C121   1.402       .  A
C121        C125   1.476       .  S
C121        C122   1.408   1_455  A
C122        C123   1.397       .  A
C122       Br134   1.920       .  S
C123        H126   1.084       .  S
C125        C127   1.403       .  A
C125        C131   1.407       .  A
C127        H132   1.084       .  S
C127        C128   1.398       .  A
C128        C129   1.409       .  A
C128       Br136   1.919       .  S
C129        C130   1.404       .  A
C130        H133   1.084   1_455  S
C130        C131   1.398       .  A
C131       Br137   1.919   1_455  S
C138        C139   1.419       .  A
C138        C143   1.408   1_455  A
C139        C140   1.401       .  A
C139       Br155   1.921       .  S
C140        H144   1.083       .  S
C140        C141   1.399       .  A
C141        C145   1.477       .  S
C141        C142   1.404   1_455  A
C142        C143   1.398       .  A
C142       Br154   1.918       .  S
C143        H146   1.082       .  S
C145        C147   1.401   1_455  A
C145        C151   1.406       .  A
C147        H152   1.084       .  S
C147        C148   1.401       .  A
C148        C149   1.414       .  A
C148       Br156   1.920       .  S
C149        C150   1.405   1_655  A
C150        H153   1.083       .  S
C150        C151   1.399       .  A
C151       Br157   1.918       .  S
C158        C159   1.415       .  A
C158        C163   1.408   1_655  A
C159        C160   1.400       .  A
C159       Br175   1.921       .  S
C160        H164   1.085       .  S
C160        C161   1.402   1_655  A
C161        C165   1.481       .  S
C161        C162   1.406       .  A
C162        C163   1.400       .  A
C162       Br174   1.919       .  S
C163        H166   1.084       .  S
C165        C167   1.400   1_455  A
C165        C171   1.405       .  A
C167        H172   1.083       .  S
C167        C168   1.401       .  A
C168        C169   1.420   1_655  A
C168       Br176   1.922       .  S
C169        C170   1.409       .  A
C170        H173   1.081       .  S
C170        C171   1.399       .  A
C171       Br177   1.919       .  S
C178        C179   1.410   1_655  A
C178        C183   1.404       .  A
C179        C180   1.397       .  A
C179       Br195   1.920       .  S
C180        H184   1.082       .  S
C180        C181   1.403   1_455  A
C181        C185   1.483       .  S
C181        C182   1.411       .  A
C182        C183   1.401       .  A
C182       Br194   1.920       .  S
C183        H186   1.082       .  S
C185        C187   1.401       .  A
C185        C191   1.408       .  A
C187        H192   1.082   1_655  S
C187        C188   1.399   1_655  A
C188        C189   1.416       .  A
C188       Br196   1.918       .  S
C189        C190   1.408   1_455  A
C190        H193   1.081       .  S
C190        C191   1.400       .  A
C191       Br197   1.920       .  S
C198        C199   1.409       .  A
C198        C203   1.403       .  A
C199        C200   1.396       .  A
C199       Br215   1.920       .  S
C200        H204   1.084       .  S
C200        C201   1.402       .  A
C201        C205   1.473       .  S
C201        C202   1.408       .  A
C202        C203   1.396       .  A
C202       Br214   1.920   1_565  S
C203        H206   1.084   1_565  S
C205        C207   1.402   1_565  A
C205        C211   1.408       .  A
C207        H212   1.084       .  S
C207        C208   1.395       .  A
C208        C209   1.408   1_545  A
C208       Br216   1.920       .  S
C209        C210   1.403       .  A
C210        H213   1.084       .  S
C210        C211   1.397       .  A
C211       Br217   1.920       .  S
C218        C219   1.421       .  A
C218        C223   1.408   1_565  A
C219        C220   1.398       .  A
C219       Br235   1.924       .  S
C220        H224   1.083       .  S
C220        C221   1.401       .  A
C221        C225   1.487       .  S
C221        C222   1.410   1_565  A
C222        C223   1.401       .  A
C222       Br234   1.919       .  S
C223        H226   1.083       .  S
C225        C227   1.404   1_565  A
C225        C231   1.412       .  A
C227        H232   1.082       .  S
C227        C228   1.401       .  A
C228        C229   1.412   1_545  A
C228       Br236   1.920       .  S
C229        C230   1.403       .  A
C230        H233   1.083       .  S
C230        C231   1.399       .  A
C231       Br237   1.920       .  S
C238        C239   1.418   1_565  A
C238        C243   1.409       .  A
C239        C240   1.401       .  A
C239       Br255   1.921       .  S
C240        H244   1.084       .  S
C240        C241   1.400   1_545  A
C241        C245   1.479       .  S
C241        C242   1.405       .  A
C242        C243   1.399       .  A
C242       Br254   1.919       .  S
C243        H246   1.083       .  S
C245        C247   1.401       .  A
C245        C251   1.407       .  A
C247        H252   1.084       .  S
C247        C248   1.402       .  A
C248        C249   1.416       .  A
C248       Br256   1.921       .  S
C249        C250   1.406       .  A
C250        H253   1.084   1_565  S
C250        C251   1.398       .  A
C251       Br257   1.919   1_565  S
C258        C259   1.416       .  A
C258        C263   1.410   1_545  A
C259        C260   1.399       .  A
C259       Br275   1.920       .  S
C260        H264   1.084       .  S
C260        C261   1.400       .  A
C261        C265   1.473       .  S
C261        C262   1.403   1_545  A
C262        C263   1.397       .  A
C262       Br274   1.918       .  S
C263        H266   1.083       .  S
C265        C267   1.399   1_545  A
C265        C271   1.406       .  A
C267        H272   1.084       .  S
C267        C268   1.396       .  A
C268        C269   1.412       .  A
C268       Br276   1.920       .  S
C269        C270   1.404   1_565  A
C270        H273   1.084       .  S
C270        C271   1.400       .  A
C271       Br277   1.917       .  S
