geometry optimzed in LAMMPS
_audit_creation_date              2020-12-01 
_audit_creation_method            'lammps2cif' 
_symmetry_space_group_name_H-M    'P1' 
_symmetry_Int_Tables_number       1 
_symmetry_cell_setting            triclinic 
loop_ 
_symmetry_equiv_pos_as_xyz 
  x,y,z 
_cell_length_a                    28.19222377 
_cell_length_b                    28.129453311092334 
_cell_length_c                    30.358241128969425 
_cell_angle_alpha                 90.22914131842138 
_cell_angle_beta                  89.62194997441358 
_cell_angle_gamma                 82.13215369931915 
loop_ 
_atom_site_label 
_atom_site_type_symbol 
_atom_site_fract_x 
_atom_site_fract_y 
_atom_site_fract_z 
_atom_site_charge 
C1          C  0.15254318  0.99168964  0.09367307     0.43300
N2          N  0.07958101  0.98493782  0.07794152     0.02200
C3          C  0.99135055  0.89853139  0.88606093    -0.05600
H4          H  0.09122339  0.04125839  0.86257065     0.07700
C5          C  0.96132499  0.14546450  0.95505176    -0.06000
Co6        Co  0.07176090  0.93114507  0.99367948     0.74200
N7          N  0.07468841  0.99974096  0.91871730    -0.25200
Co8        Co  0.00041505  0.00192175  0.91977623     0.74100
C9          C  0.98925632  0.15250084  0.91520450     0.43400
N10         N  0.96796718  0.08775904  0.05712235     0.01800
N11         N  0.99052256  0.07670711  0.92691208     0.02000
N12         N  0.03712581  0.85331476  0.93537361    -0.46000
H13         H  0.17978335  0.95116973  0.02991637     0.07700
N14         N  0.10160179  0.97279351  0.94688669     0.02200
N15         N  0.92639189  0.00320044  0.92241008     0.02000
C16         C  0.85428295  0.99371780  0.90650173     0.43600
N17         N  0.99535679  0.06090955  0.08510480    -0.24600
C18         C  0.04658231  0.84278243  0.04606240    -0.05600
N19         N  0.10683613  0.00163595  0.10819723    -0.45700
N20         N  0.89997527  0.98601313  0.89192274    -0.46000
C21         C  0.02081446  0.83554935  0.08693980     0.43400
N22         N  0.03626894  0.89984420  0.94333405     0.02200
N23         N  0.93130246  0.98911951  0.08242778    -0.24700
N24         N  0.10457611  0.96404711  0.04459647    -0.25100
N25         N  0.90385207  0.01535275  0.05402275     0.01900
H26         H  0.91594326  0.95086666  0.14108561     0.07800
H27         H  0.82468113  0.03316052  0.96973001     0.07800
N28         N  0.00968952  0.92703074  0.91500916    -0.25200
N29         N  0.96423662  0.09754612  0.95953084    -0.24800
N30         N  0.01589479  0.91131289  0.07389926     0.02200
C31         C  0.15222128  0.00140207  0.90444853     0.43600
C32         C  0.01169840  0.08945085  0.11510534    -0.06100
N33         N  0.90068412  0.02316071  0.95577642    -0.24800
H34         H  0.94185524  0.17166716  0.97692643     0.07800
N35         N  0.14788291  0.97240619  0.93921264    -0.46000
H36         H  0.03404240  0.07722829  0.14273535     0.07800
C37         C  0.85449298  0.99085243  0.10005242     0.43500
C38         C  0.15098658  0.96649428  0.05144787    -0.05600
Co39       Co  0.00550395  0.98631391  0.08067321     0.73800
N40         N  0.96426316  0.13410860  0.06652710    -0.45700
C41         C  0.00911364  0.84966087  0.89989789     0.43700
N42         N  0.00273121  0.87970828  0.10214018    -0.45700
Co43       Co  0.93330966  0.05659486  0.00662932     0.73900
C44         C  0.85443138  0.01889111  0.94875327    -0.06100
C45         C  0.10335601  0.01946207  0.89057218    -0.05600
N46         N  0.04162530  0.89059545  0.04087896    -0.25200
N47         N  0.00605419  0.10810379  0.89981972    -0.45900
H48         H  0.96813934  0.91056644  0.85894569     0.07700
C49         C  0.90333179  0.97191745  0.11274354    -0.06000
Cl50       Cl  0.00271046  0.99396437  0.00021936    -0.49000
C51         C  0.99106587  0.13803963  0.10268769     0.43500
H52         H  0.06675382  0.81686384  0.02437929     0.07700
N53         N  0.85770892  0.01726257  0.06337305    -0.45800
C54         C  0.00170797  0.53444389  0.26291028     0.04000
C55         C  0.99788291  0.49122847  0.24063507    -0.12100
C56         C  0.99579913  0.44872677  0.26416857     0.01500
C57         C  0.99765226  0.44926931  0.31012824    -0.10700
C58         C  0.00245742  0.49167136  0.33291015     0.04000
C59         C  0.00400097  0.53440176  0.30923691    -0.10100
H60         H  0.99699860  0.49053140  0.20493303     0.09600
H61         H  0.99606237  0.41635638  0.32817626     0.07100
H62         H  0.00632963  0.56753740  0.32686030     0.07000
C63         C  0.00652177  0.53853204  0.73260406     0.04000
C64         C  0.01060573  0.49585981  0.75721097    -0.12100
C65         C  0.01644775  0.45082857  0.73618660     0.01500
C66         C  0.01776304  0.44908602  0.68979142    -0.10700
C67         C  0.01394110  0.49144491  0.66474504     0.04000
C68         C  0.00826121  0.53601479  0.68647069    -0.10100
H69         H  0.00817414  0.49794265  0.79277032     0.09600
H70         H  0.02156212  0.41462892  0.67305898     0.07100
H71         H  0.00517101  0.56875409  0.66747952     0.07000
C72         C  0.45522904  0.99083751  0.26598942     0.04000
C73         C  0.45760794  0.99300063  0.31211479    -0.12100
C74         C  0.50201353  0.99255289  0.33311317     0.01500
C75         C  0.54414180  0.98844631  0.30741452    -0.10700
C76         C  0.54199371  0.98690664  0.26123661     0.04000
C77         C  0.49744471  0.98822443  0.24081186    -0.10100
H78         H  0.42498455  0.99563531  0.33150845     0.09600
H79         H  0.57856477  0.98773335  0.32330427     0.07100
H80         H  0.49558859  0.98709841  0.20516855     0.07000
C81         C  0.46385730  0.99968219  0.73714453     0.04000
C82         C  0.46306670  0.99858389  0.69063260    -0.12100
C83         C  0.50549269  0.99665064  0.66593970     0.01500
C84         C  0.54898258  0.99738578  0.68782958    -0.10700
C85         C  0.55089940  0.99832381  0.73404547     0.04000
C86         C  0.50825368  0.99855514  0.75844700    -0.10100
H87         H  0.42936547  0.99987954  0.67343709     0.09600
H88         H  0.58159620  0.99708510  0.66863169     0.07100
H89         H  0.51001667  0.99586409  0.79389096     0.07000
C90         C  0.49453547  0.95964338  0.54584390    -0.13500
C91         C  0.51042355  0.99844917  0.52393620     0.16900
C92         C  0.52244698  0.03736718  0.54908742     0.03200
C93         C  0.51995565  0.03609085  0.59516011    -0.12000
C94         C  0.50476011  0.99701615  0.61706781    -0.03000
C95         C  0.49141374  0.95867322  0.59196084     0.02400
C96         C  0.51131633  0.99846014  0.47492760     0.09300
N97         N  0.53833614  0.07805001  0.52859888     0.65600
H98         H  0.53013630  0.06576299  0.61400155     0.18500
N99         N  0.47620166  0.91770917  0.61255638     0.76100
H100        H  0.48413307  0.93008303  0.52702838     0.10100
C101        C  0.53860630  0.96140546  0.45049690     0.03800
C102        C  0.53486491  0.96005539  0.40450823    -0.05000
C103        C  0.50478653  0.99555252  0.38190707    -0.23300
C104        C  0.47870970  0.03348905  0.40622642     0.13000
C105        C  0.48172733  0.03430828  0.45230782    -0.12500
N106        N  0.57173529  0.92587916  0.47165026     0.64700
H107        H  0.55566625  0.93116170  0.38635340     0.12500
N108        N  0.45114893  0.07291875  0.38463343     0.61300
H109        H  0.46060603  0.06293190  0.47048463     0.08700
O110        O  0.50594453  0.88020430  0.61668493    -0.40100
O111        O  0.43203003  0.91450945  0.61458059    -0.39300
O112        O  0.50987722  0.11669524  0.52636859    -0.39300
O113        O  0.58270361  0.07931447  0.52448282    -0.37000
O114        O  0.47013899  0.11017320  0.37701335    -0.37900
O115        O  0.40612900  0.07545991  0.38407001    -0.34100
O116        O  0.56142026  0.88386179  0.47576633    -0.35500
O117        O  0.61482658  0.93285357  0.47512962    -0.39800
C118        C  0.03618424  0.45923783  0.45113020    -0.13500
C119        C  0.99971187  0.48775354  0.47453100     0.16900
C120        C  0.96494769  0.51836925  0.45114287     0.03200
C121        C  0.96711596  0.51989876  0.40505538    -0.12000
C122        C  0.00340603  0.49119609  0.38163945    -0.03000
C123        C  0.03821829  0.46053081  0.40505205     0.02400
C124        C  0.00207794  0.48861700  0.52324244     0.09300
N125        N  0.92806798  0.54923420  0.47359415     0.65600
H126        H  0.94005632  0.54330299  0.38743703     0.18500
N127        N  0.07682970  0.43180832  0.38268775     0.76100
H128        H  0.06365249  0.43641605  0.46882219     0.10100
C129        C  0.97219959  0.46449718  0.55009863     0.03800
C130        C  0.97732146  0.46514370  0.59601224    -0.05000
C131        C  0.01205712  0.48935509  0.61586945    -0.23300
C132        C  0.04267238  0.51254163  0.58875287     0.13000
C133        C  0.03740411  0.51196974  0.54291007    -0.12500
N134        N  0.93745472  0.43800002  0.53142746     0.64700
H135        H  0.95373442  0.44708963  0.61624572     0.12500
N136        N  0.08047289  0.53532040  0.60690206     0.61300
H137        H  0.06126755  0.52950954  0.52250620     0.08700
O138        O  0.07523421  0.38755954  0.37726411    -0.40100
O139        O  0.11638309  0.44761807  0.37843197    -0.39300
O140        O  0.93324306  0.59262905  0.47956329    -0.39300
O141        O  0.88656921  0.53733313  0.47567200    -0.37000
O142        O  0.12186334  0.51186799  0.60921578    -0.37900
O143        O  0.07586415  0.58054730  0.60852383    -0.34100
O144        O  0.94763823  0.39313058  0.52707461    -0.35500
O145        O  0.89406160  0.45639184  0.53137768    -0.39800
C146        C  0.04647842  0.35123013  0.82162255    -0.13500
C147        C  0.01412656  0.31969967  0.81009165     0.16900
C148        C  0.98312069  0.33135769  0.77433343     0.03200
C149        C  0.98506443  0.37372875  0.75065131    -0.12000
C150        C  0.01711262  0.40572933  0.76217422    -0.03000
C151        C  0.04805426  0.39410474  0.79831453     0.02400
C152        C  0.00978723  0.27746200  0.83835533     0.09300
N153        N  0.94907799  0.30070714  0.76174289     0.65600
H154        H  0.96065255  0.38210872  0.72358055     0.18500
N155        N  0.08205113  0.42463794  0.81137771     0.76100
H156        H  0.06998416  0.34296288  0.84935683     0.10100
C157        C  0.04266120  0.23502327  0.83612138     0.03800
C158        C  0.03563745  0.19555965  0.86230748    -0.05000
C159        C  0.99674169  0.19755073  0.89184388    -0.23300
C160        C  0.96553087  0.24137759  0.89587972     0.13000
C161        C  0.97207538  0.28040641  0.86889155    -0.12500
N162        N  0.08296569  0.23088964  0.80696596     0.64700
H163        H  0.06071292  0.16297560  0.85916671     0.12500
N164        N  0.92641426  0.24732316  0.92631782     0.61300
H165        H  0.94733250  0.31326331  0.87166825     0.08700
O166        O  0.12489646  0.41468108  0.79845615    -0.40100
O167        O  0.07297309  0.45150884  0.84462065    -0.39300
O168        O  0.90585964  0.31155820  0.77328439    -0.39300
O169        O  0.95938070  0.27110439  0.73066665    -0.37000
O170        O  0.92993531  0.27223478  0.96045752    -0.37900
O171        O  0.88523823  0.24220422  0.91268354    -0.34100
O172        O  0.12363601  0.23507177  0.82242677    -0.35500
O173        O  0.08038793  0.21029545  0.77023782    -0.39800
C174        C  0.96992337  0.66791978  0.77079762    -0.13500
C175        C  0.00697791  0.67360626  0.80024504     0.16900
C176        C  0.04310301  0.63432075  0.80730936     0.03200
C177        C  0.04161403  0.59094256  0.78514196    -0.12000
C178        C  0.00492488  0.58539516  0.75549787    -0.03000
C179        C  0.96882282  0.62454904  0.74811419     0.02400
C180        C  0.00571701  0.71939989  0.82533366     0.09300
N181        N  0.08219183  0.63780283  0.83632001     0.65600
H182        H  0.06985608  0.56147069  0.79070089     0.18500
N183        N  0.92965218  0.62047088  0.71934995     0.76100
H184        H  0.94092592  0.69678479  0.76621472     0.10100
C185        C  0.00056142  0.76462062  0.80441890     0.03800
C186        C  0.00053761  0.80649327  0.82951811    -0.05000
C187        C  0.00526570  0.80464445  0.87546548    -0.23300
C188        C  0.00772102  0.75978687  0.89656555     0.13000
C189        C  0.00790353  0.71785711  0.87148900    -0.12500
N190        N  0.99635578  0.76893976  0.75768398     0.64700
H191        H  0.99815642  0.84050863  0.81262290     0.12500
N192        N  0.00810161  0.75608808  0.94343856     0.61600
H193        H  0.00896088  0.68393242  0.88833267     0.08700
O194        O  0.89114369  0.60973111  0.73543108    -0.40100
O195        O  0.92881223  0.64039250  0.68213892    -0.39300
O196        O  0.08306225  0.61679417  0.87302128    -0.39300
O197        O  0.12072594  0.64882201  0.82056317    -0.37000
O198        O  0.96889824  0.75611636  0.96375590    -0.37900
O199        O  0.04651129  0.73935631  0.96220084    -0.34100
O200        O  0.95587260  0.78346173  0.74147008    -0.35500
O201        O  0.03345517  0.77176627  0.73492318    -0.39800
C202        C  0.96498354  0.32912411  0.22374342    -0.13500
C203        C  0.00671808  0.31166819  0.20010155     0.16900
C204        C  0.04413689  0.33995626  0.19698923     0.03200
C205        C  0.03939832  0.38484143  0.21773831    -0.12000
C206        C  0.99753266  0.40243045  0.24098965    -0.03000
C207        C  0.95992457  0.37432388  0.24386194     0.02400
C208        C  0.00655232  0.26748534  0.17384194     0.09300
N209        N  0.08588427  0.32515684  0.17086200     0.65600
H210        H  0.06837901  0.40624797  0.21542811     0.18500
N211        N  0.91530315  0.39226805  0.26447295     0.76100
H212        H  0.93550546  0.30827094  0.22513590     0.10100
C213        C  0.03508486  0.22391621  0.18408011     0.03800
C214        C  0.03001173  0.18252750  0.15989184    -0.05000
C215        C  0.99620404  0.18334818  0.12600728    -0.23300
C216        C  0.96770037  0.22722788  0.11598902     0.13000
C217        C  0.97346978  0.26867590  0.13959515    -0.12500
N218        N  0.06736469  0.22008160  0.22034411     0.64700
H219        H  0.05221842  0.14959993  0.16844468     0.12500
N220        N  0.93201908  0.23066076  0.08263696     0.61300
H221        H  0.95105718  0.30193334  0.13182662     0.08700
O222        O  0.90549444  0.37650485  0.30181455    -0.40100
O223        O  0.88175352  0.41257905  0.24100058    -0.39300
O224        O  0.08691929  0.33936556  0.13154443    -0.39300
O225        O  0.12486651  0.31103853  0.18992879    -0.37000
O226        O  0.88900025  0.22908273  0.09356299    -0.37900
O227        O  0.94091184  0.24891587  0.04618918    -0.34100
O228        O  0.05347390  0.20498106  0.25664947    -0.35500
O229        O  0.11171866  0.21657214  0.21256194    -0.39800
C230        C  0.03904975  0.70586648  0.12815811    -0.13500
C231        C  0.00084734  0.70680664  0.15815829     0.16900
C232        C  0.96944897  0.74991712  0.16396925     0.03200
C233        C  0.97621086  0.79056050  0.13942492    -0.12000
C234        C  0.01478162  0.79004590  0.10984104    -0.03000
C235        C  0.04683821  0.74696510  0.10461628     0.02400
C236        C  0.99848665  0.66407953  0.18639362     0.09300
N237        N  0.93306740  0.75458466  0.19724636     0.65600
H238        H  0.95175229  0.82329757  0.14467604     0.18500
N239        N  0.08984658  0.74504677  0.07911976     0.76100
H240        H  0.06437802  0.67345472  0.12449234     0.10100
C241        C  0.96150050  0.63515162  0.18306016     0.03800
C242        C  0.96312432  0.59346764  0.20858804    -0.05000
C243        C  0.00118688  0.57964325  0.23750920    -0.23300
C244        C  0.03817298  0.60856789  0.24071436     0.13000
C245        C  0.03645549  0.65030560  0.21535865    -0.12500
N246        N  0.92329352  0.64595282  0.15246791     0.64700
H247        H  0.93470537  0.57151558  0.20548793     0.12500
N248        N  0.07909769  0.59486100  0.26762274     0.61300
H249        H  0.06544448  0.67165787  0.21766989     0.08700
O250        O  0.12762513  0.75346396  0.09793879    -0.40100
O251        O  0.09330912  0.72186717  0.04333147    -0.39300
O252        O  0.94304441  0.76926057  0.23495382    -0.39300
O253        O  0.88978456  0.75886029  0.18574534    -0.37000
O254        O  0.11610745  0.57158787  0.25043905    -0.37900
O255        O  0.08265310  0.61639481  0.30373595    -0.34100
O256        O  0.92655457  0.62536869  0.11535433    -0.35500
O257        O  0.88241128  0.66315310  0.16681333    -0.39800
C258        C  0.65064439  0.02231528  0.81208344    -0.13500
C259        C  0.68868940  0.98874494  0.79728999     0.16900
C260        C  0.68156585  0.95869479  0.76135907     0.03200
C261        C  0.63650541  0.96250020  0.74137888    -0.12000
C262        C  0.59809683  0.99610683  0.75631019    -0.03000
C263        C  0.60583104  0.02650394  0.79198950     0.02400
C264        C  0.73373174  0.98445934  0.82261604     0.09300
N265        N  0.71886846  0.92309073  0.74556091     0.65600
H266        H  0.63133480  0.93839188  0.71453252     0.18500
N267        N  0.56933469  0.06287052  0.80777110     0.76100
H268        H  0.65584540  0.04562928  0.83957513     0.10100
C269        C  0.77519228  0.00151628  0.80639558     0.03800
C270        C  0.81449908  0.00279096  0.83411628    -0.05000
C271        C  0.81279362  0.98877015  0.87834280    -0.23300
C272        C  0.77149150  0.97143819  0.89450280     0.13000
C273        C  0.73259141  0.96910478  0.86651389    -0.12500
N274        N  0.77691392  0.02096111  0.76311090     0.64700
H275        H  0.84574168  0.01682256  0.82148168     0.12500
N276        N  0.76879857  0.95486350  0.93874993     0.61300
H277        H  0.70076459  0.95637790  0.87940585     0.08700
O278        O  0.55228517  0.05845537  0.84581655    -0.40100
O279        O  0.56634109  0.10420174  0.79115711    -0.39300
O280        O  0.71989534  0.88040934  0.75853509    -0.39300
O281        O  0.74028096  0.93079725  0.71022136    -0.37000
O282        O  0.74386520  0.98081314  0.96667416    -0.37900
O283        O  0.78010874  0.91074687  0.94649810    -0.34100
O284        O  0.76598852  0.06561671  0.75807136    -0.35500
O285        O  0.80213223  0.99716553  0.73399940    -0.39800
C286        C  0.24893269  0.03409156  0.82552120    -0.13500
C287        C  0.28515932  0.99548458  0.83219510     0.16900
C288        C  0.27832361  0.96061134  0.86376817     0.03200
C289        C  0.23505244  0.96392229  0.88708267    -0.12000
C290        C  0.19795757  0.00186242  0.87989054    -0.03000
C291        C  0.20560326  0.03778068  0.84914565     0.02400
C292        C  0.33127214  0.99466385  0.80859268     0.09300
N293        N  0.31543498  0.92232830  0.87355737     0.65600
H294        H  0.23053107  0.93627381  0.91078439     0.18500
N295        N  0.17122558  0.07943677  0.84295736     0.76100
H296        H  0.25469149  0.06193984  0.80239670     0.10100
C297        C  0.34215557  0.96724736  0.77011313     0.03800
C298        C  0.38557368  0.96908091  0.74798343    -0.05000
C299        C  0.41854740  0.99878490  0.76287849    -0.23300
C300        C  0.40714666  0.02638516  0.80171396     0.13000
C301        C  0.36395575  0.02381225  0.82407662    -0.12500
N302        N  0.30887900  0.93861670  0.75209609     0.64700
H303        H  0.39340997  0.94698037  0.71891369     0.12500
N304        N  0.43801058  0.05809700  0.81881860     0.61300
H305        H  0.35549010  0.04538569  0.85341023     0.08700
O306        O  0.14701475  0.08322548  0.80802981    -0.40100
O307        O  0.17499863  0.11674190  0.86516384    -0.39300
O308        O  0.34142248  0.92596486  0.90675278    -0.39300
O309        O  0.31382244  0.88143694  0.85688425    -0.37000
O310        O  0.43302154  0.10097247  0.80565693    -0.37900
O311        O  0.45771935  0.04825516  0.85546906    -0.34100
O312        O  0.28312227  0.95482402  0.72024857    -0.35500
O313        O  0.31459340  0.89408660  0.75936759    -0.39800
C314        C  0.75992409  0.97703857  0.18774175    -0.13500
C315        C  0.71901132  0.97674377  0.16170270     0.16900
C316        C  0.72315439  0.98186602  0.11564875     0.03200
C317        C  0.76775112  0.98592360  0.09659068    -0.12000
C318        C  0.80874621  0.98567396  0.12252282    -0.03000
C319        C  0.80444652  0.98195536  0.16874237     0.02400
C320        C  0.67195802  0.97635259  0.18401225     0.09300
N321        N  0.68258255  0.98301101  0.08755525     0.65600
H322        H  0.77027065  0.98928769  0.06119666     0.18500
N323        N  0.84348150  0.98744761  0.19724355     0.76100
H324        H  0.75685994  0.97565123  0.22322372     0.10100
C325        C  0.66362165  0.93928881  0.21314104     0.03800
C326        C  0.62112514  0.94332944  0.23800218    -0.05000
C327        C  0.58633330  0.98376962  0.23422271    -0.23300
C328        C  0.59428467  0.02041167  0.20459098     0.13000
C329        C  0.63683698  0.01649993  0.17992580    -0.12500
N330        N  0.69774516  0.89711554  0.21759883     0.64700
H331        H  0.61518009  0.91473293  0.26022330     0.12500
N332        N  0.56086720  0.06321112  0.20113120     0.61300
H333        H  0.64328846  0.04588021  0.15886590     0.08700
O334        O  0.86406233  0.95126629  0.21731465    -0.40100
O335        O  0.84819616  0.02883716  0.21125533    -0.39300
O336        O  0.66422297  0.02265541  0.07170146    -0.39300
O337        O  0.67458067  0.94465449  0.06912772    -0.37000
O338        O  0.56600313  0.09875865  0.22524956    -0.37900
O339        O  0.53449876  0.06934789  0.16765125    -0.34100
O340        O  0.72332705  0.89190540  0.25164561    -0.35500
O341        O  0.69400405  0.86107916  0.19364137    -0.39800
C342        C  0.23668283  0.02404362  0.18409065    -0.13500
C343        C  0.28126584  0.00728297  0.16516612     0.16900
C344        C  0.28337065  0.98844822  0.12213484     0.03200
C345        C  0.24110938  0.98487088  0.09938825    -0.12000
C346        C  0.19601008  0.99996902  0.11855016    -0.03000
C347        C  0.19414438  0.02106840  0.16113576     0.02400
C348        C  0.32466876  0.00483722  0.19243664     0.09300
N349        N  0.32811803  0.97166444  0.10125553     0.65600
H350        H  0.24414787  0.96949915  0.06672119     0.18500
N351        N  0.14979884  0.03980829  0.18177869     0.76100
H352        H  0.23488111  0.03872387  0.21716102     0.10100
C353        C  0.35399705  0.04146174  0.19215298     0.03800
C354        C  0.39606865  0.03628508  0.21686882    -0.05000
C355        C  0.40866460  0.99571893  0.24320601    -0.23300
C356        C  0.37784114  0.96027933  0.24542091     0.13000
C357        C  0.33648939  0.96480007  0.21956323    -0.12500
N358        N  0.34096087  0.08470569  0.16806621     0.64700
H359        H  0.41891373  0.06413545  0.21570837     0.12500
N360        N  0.38833634  0.91908904  0.27286092     0.61300
H361        H  0.31359669  0.93699283  0.22054467     0.08700
O362        O  0.13658981  0.08450679  0.18103793    -0.40100
O363        O  0.13191736  0.01482797  0.21027310    -0.39300
O364        O  0.34143207  0.92706773  0.09836463    -0.39300
O365        O  0.34652568  0.99947196  0.07573957    -0.37000
O366        O  0.36870628  0.91918750  0.31034616    -0.37900
O367        O  0.40573705  0.87957642  0.25564579    -0.34100
O368        O  0.31932445  0.12088242  0.18795306    -0.35500
O369        O  0.36172654  0.09046965  0.13193438    -0.39800
loop_ 
_geom_bond_atom_site_label_1 
_geom_bond_atom_site_label_2 
_geom_bond_distance 
_geom_bond_site_symmetry_2 
_ccdc_geom_bond_type 
C1           N19   1.351   1_565  A
C1           C38   1.466       .  S
C1          C346   1.488       .  S
N2           N19   1.326   1_565  A
N2           N24   1.319       .  A
N2          Co39   2.085       .  S
C3           N28   1.340   1_655  A
C3           C41   1.461   1_655  S
C3           H48   1.081       .  S
H4           C45   1.080       .  S
C5           N29   1.347       .  A
C5            C9   1.468       .  S
C5           H34   1.080       .  S
Co6          N24   2.084   1_556  S
Co6          N14   2.089       .  S
Co6          N46   2.083   1_556  S
Co6          N22   2.089       .  S
Co6         Cl50   2.450   1_556  S
N7           C45   1.345   1_565  A
N7           N14   1.318       .  A
N7           Co8   2.086   1_565  S
Co8          N11   2.094   1_455  S
Co8          N28   2.091   1_545  S
Co8          N15   2.083   1_455  S
Co8         Cl50   2.454   1_546  S
C9           N47   1.354   1_655  A
C9          C159   1.494       .  S
N10          N17   1.320       .  A
N10          N40   1.323       .  A
N10         Co43   2.078       .  S
N11          N29   1.319       .  A
N11          N47   1.325   1_655  A
N12          C41   1.352       .  A
N12          N22   1.327       .  A
H13          C38   1.080       .  S
N14          N35   1.322       .  A
N15          N33   1.319       .  A
N15          N20   1.323   1_545  A
C16          N20   1.348       .  A
C16          C44   1.463   1_565  S
C16         C271   1.475       .  S
N17          C32   1.337   1_655  A
N17         Co39   2.082   1_645  S
C18          N46   1.343       .  A
C18          C21   1.463       .  S
C18          H52   1.080       .  S
C21          N42   1.355       .  A
C21         C234   1.489       .  S
N22          N28   1.320       .  A
N23          C49   1.342       .  A
N23          N25   1.321   1_565  A
N23         Co39   2.083   1_655  S
N24          C38   1.337       .  A
N25          N53   1.323       .  A
N25         Co43   2.090       .  S
H26          C49   1.081       .  S
H27          C44   1.081       .  S
N29         Co43   2.098   1_556  S
N30          N42   1.325       .  A
N30          N46   1.319       .  A
N30         Co39   2.099       .  S
C31          N35   1.351   1_545  A
C31          C45   1.467       .  S
C31         C290   1.487       .  S
C32          C51   1.462   1_455  S
C32          H36   1.081       .  S
N33          C44   1.344       .  A
N33         Co43   2.088   1_556  S
C37          N53   1.350   1_565  A
C37          C49   1.461       .  S
C37         C318   1.480       .  S
Co39        Cl50   2.454       .  S
N40          C51   1.350       .  A
C41         C187   1.482       .  S
Co43        Cl50   2.453   1_645  S
C51         C215   1.480       .  S
C54         C243   1.488       .  S
C54          C55   1.406   1_455  A
C54          C59   1.408       .  A
C55          H60   1.084       .  S
C55          C56   1.403       .  A
C56         C206   1.473       .  S
C56          C57   1.397       .  A
C57          H61   1.084       .  S
C57          C58   1.399   1_655  A
C58         C122   1.480       .  S
C58          C59   1.409       .  A
C59          H62   1.083       .  S
C63         C178   1.483       .  S
C63          C64   1.408       .  A
C63          C68   1.402       .  A
C64          H69   1.082       .  S
C64          C65   1.405       .  A
C65         C150   1.495       .  S
C65          C66   1.409       .  A
C66          H70   1.084       .  S
C66          C67   1.408       .  A
C67         C131   1.486       .  S
C67          C68   1.403       .  A
C68          H71   1.082       .  S
C72         C355   1.478       .  S
C72          C73   1.404       .  A
C72          C77   1.403       .  A
C73          H78   1.083       .  S
C73          C74   1.407       .  A
C74         C103   1.487       .  S
C74          C75   1.408       .  A
C75          H79   1.084       .  S
C75          C76   1.404       .  A
C76         C327   1.483       .  S
C76          C77   1.400       .  A
C77          H80   1.084       .  S
C81         C299   1.496       .  S
C81          C82   1.413       .  A
C81          C86   1.409       .  A
C82          H87   1.083       .  S
C82          C83   1.402       .  A
C83          C94   1.484       .  S
C83          C84   1.401       .  A
C84          H88   1.084       .  S
C84          C85   1.405       .  A
C85         C262   1.490       .  S
C85          C86   1.407       .  A
C86          H89   1.080       .  S
C90         H100   1.081       .  S
C90          C91   1.404       .  A
C90          C95   1.403       .  A
C91          C96   1.488       .  S
C91          C92   1.412   1_565  A
C92          C93   1.401       .  A
C92          N97   1.428       .  S
C93          H98   1.082       .  S
C93          C94   1.402   1_545  A
C94          C95   1.412       .  A
C95          N99   1.428       .  S
C96         C101   1.413       .  A
C96         C105   1.403   1_565  A
N97         O112   1.262       .  A
N97         O113   1.262       .  A
N99         O110   1.262       .  A
N99         O111   1.262       .  A
C101        C102   1.402       .  A
C101        N106   1.429       .  S
C102        H107   1.082       .  S
C102        C103   1.403       .  A
C103        C104   1.413   1_565  A
C104        C105   1.402       .  A
C104        N108   1.428       .  S
C105        H109   1.081       .  S
N106        O116   1.262       .  A
N106        O117   1.262       .  A
N108        O114   1.262       .  A
N108        O115   1.262       .  A
C118        H128   1.083       .  S
C118        C119   1.402   1_455  A
C118        C123   1.400       .  A
C119        C124   1.481   1_655  S
C119        C120   1.410       .  A
C120        C121   1.401       .  A
C120        N125   1.428       .  S
C121        H126   1.083       .  S
C121        C122   1.401   1_655  A
C122        C123   1.412       .  A
C123        N127   1.430       .  S
C124        C129   1.409   1_455  A
C124        C133   1.401       .  A
N125        O140   1.262       .  A
N125        O141   1.261       .  A
N127        O138   1.262       .  A
N127        O139   1.262       .  A
C129        C130   1.403       .  A
C129        N134   1.428       .  S
C130        H135   1.080       .  S
C130        C131   1.405   1_655  A
C131        C132   1.413       .  A
C132        C133   1.401       .  A
C132        N136   1.429       .  S
C133        H137   1.081       .  S
N134        O144   1.262       .  A
N134        O145   1.261       .  A
N136        O142   1.262       .  A
N136        O143   1.262       .  A
C146        H156   1.081       .  S
C146        C147   1.402       .  A
C146        C151   1.407       .  A
C147        C152   1.486       .  S
C147        C148   1.410   1_455  A
C148        C149   1.402       .  A
C148        N153   1.428       .  S
C149        H154   1.081       .  S
C149        C150   1.405   1_655  A
C150        C151   1.417       .  A
C151        N155   1.429       .  S
C152        C157   1.409       .  A
C152        C161   1.400   1_455  A
N153        O168   1.262       .  A
N153        O169   1.262       .  A
N155        O166   1.262       .  A
N155        O167   1.262       .  A
C157        C158   1.403       .  A
C157        N162   1.428       .  S
C158        H163   1.082       .  S
C158        C159   1.407   1_455  A
C159        C160   1.418       .  A
C160        C161   1.404       .  A
C160        N164   1.426       .  S
C161        H165   1.082       .  S
N162        O172   1.262       .  A
N162        O173   1.262       .  A
N164        O170   1.261       .  A
N164        O171   1.261       .  A
C174        H184   1.081       .  S
C174        C175   1.405   1_655  A
C174        C179   1.403       .  A
C175        C180   1.490       .  S
C175        C176   1.415       .  A
C176        C177   1.397       .  A
C176        N181   1.429       .  S
C177        H182   1.083       .  S
C177        C178   1.400       .  A
C178        C179   1.413   1_455  A
C179        N183   1.429       .  S
C180        C185   1.414       .  A
C180        C189   1.404       .  A
N181        O196   1.262       .  A
N181        O197   1.262       .  A
N183        O194   1.262       .  A
N183        O195   1.262       .  A
C185        C186   1.400       .  A
C185        N190   1.429   1_455  S
C186        H191   1.082   1_455  S
C186        C187   1.403       .  A
C187        C188   1.411       .  A
C188        C189   1.401       .  A
C188        N192   1.427       .  S
C189        H193   1.081       .  S
N190        O200   1.262       .  A
N190        O201   1.261   1_655  A
N192        O198   1.262   1_455  A
N192        O199   1.261       .  A
C202        H212   1.082       .  S
C202        C203   1.403   1_655  A
C202        C207   1.397       .  A
C203        C208   1.474       .  S
C203        C204   1.409       .  A
C204        C205   1.398       .  A
C204        N209   1.428       .  S
C205        H210   1.081       .  S
C205        C206   1.401   1_455  A
C206        C207   1.409       .  A
C207        N211   1.429       .  S
C208        C213   1.408       .  A
C208        C217   1.399   1_455  A
N209        O224   1.262       .  A
N209        O225   1.261       .  A
N211        O222   1.262       .  A
N211        O223   1.262       .  A
C213        C214   1.398       .  A
C213        N218   1.428       .  S
C214        H219   1.078       .  S
C214        C215   1.405   1_455  A
C215        C216   1.413       .  A
C216        C217   1.395       .  A
C216        N220   1.426       .  S
C217        H221   1.083       .  S
N218        O228   1.262       .  A
N218        O229   1.261       .  A
N220        O226   1.262       .  A
N220        O227   1.260       .  A
C230        H240   1.083       .  S
C230        C231   1.403       .  A
C230        C235   1.403       .  A
C231        C236   1.488   1_455  S
C231        C232   1.410   1_455  A
C232        C233   1.401       .  A
C232        N237   1.428       .  S
C233        H238   1.083       .  S
C233        C234   1.404   1_655  A
C234        C235   1.417       .  A
C235        N239   1.429       .  S
C236        C241   1.412       .  A
C236        C245   1.404   1_655  A
N237        O252   1.262       .  A
N237        O253   1.261       .  A
N239        O250   1.262       .  A
N239        O251   1.261       .  A
C241        C242   1.404       .  A
C241        N246   1.429       .  S
C242        H247   1.081       .  S
C242        C243   1.405   1_655  A
C243        C244   1.411       .  A
C244        C245   1.402       .  A
C244        N248   1.428       .  S
C245        H249   1.081       .  S
N246        O256   1.262       .  A
N246        O257   1.261       .  A
N248        O254   1.262       .  A
N248        O255   1.262       .  A
C258        H268   1.082       .  S
C258        C259   1.399   1_545  A
C258        C263   1.397       .  A
C259        C264   1.480       .  S
C259        C260   1.410       .  A
C260        C261   1.402       .  A
C260        N265   1.428       .  S
C261        H266   1.081       .  S
C261        C262   1.408       .  A
C262        C263   1.414   1_565  A
C263        N267   1.427       .  S
C264        C269   1.410   1_565  A
C264        C273   1.404       .  A
N265        O280   1.262       .  A
N265        O281   1.262       .  A
N267        O278   1.261       .  A
N267        O279   1.262       .  A
C269        C270   1.400       .  A
C269        N274   1.428       .  S
C270        H275   1.082       .  S
C270        C271   1.403   1_545  A
C271        C272   1.409       .  A
C272        C273   1.400       .  A
C272        N276   1.429       .  S
C273        H277   1.082       .  S
N274        O284   1.262       .  A
N274        O285   1.261   1_545  A
N276        O282   1.262       .  A
N276        O283   1.262       .  A
C286        H296   1.082       .  S
C286        C287   1.402   1_545  A
C286        C291   1.404       .  A
C287        C292   1.478       .  S
C287        C288   1.405       .  A
C288        C289   1.398       .  A
C288        N293   1.429       .  S
C289        H294   1.081       .  S
C289        C290   1.407   1_565  A
C290        C291   1.415       .  A
C291        N295   1.429       .  S
C292        C297   1.406       .  A
C292        C301   1.397   1_565  A
N293        O308   1.262       .  A
N293        O309   1.261       .  A
N295        O306   1.262       .  A
N295        O307   1.262       .  A
C297        C298   1.400       .  A
C297        N302   1.428       .  S
C298        H303   1.081       .  S
C298        C299   1.408       .  A
C299        C300   1.420   1_565  A
C300        C301   1.401       .  A
C300        N304   1.427       .  S
C301        H305   1.082       .  S
N302        O312   1.262       .  A
N302        O313   1.261       .  A
N304        O310   1.262       .  A
N304        O311   1.262       .  A
C314        H324   1.081       .  S
C314        C315   1.404       .  A
C314        C319   1.402       .  A
C315        C320   1.487       .  S
C315        C316   1.412       .  A
C316        C317   1.400       .  A
C316        N321   1.428       .  S
C317        H322   1.082       .  S
C317        C318   1.402       .  A
C318        C319   1.413       .  A
C319        N323   1.429       .  S
C320        C325   1.413       .  A
C320        C329   1.403   1_565  A
N321        O336   1.262   1_565  A
N321        O337   1.262       .  A
N323        O334   1.262       .  A
N323        O335   1.262   1_565  A
C325        C326   1.403       .  A
C325        N330   1.429       .  S
C326        H331   1.082       .  S
C326        C327   1.402       .  A
C327        C328   1.411   1_565  A
C328        C329   1.401       .  A
C328        N332   1.428       .  S
C329        H333   1.081       .  S
N330        O340   1.262       .  A
N330        O341   1.262       .  A
N332        O338   1.262       .  A
N332        O339   1.262       .  A
C342        H352   1.082       .  S
C342        C343   1.399       .  A
C342        C347   1.403       .  A
C343        C348   1.476       .  S
C343        C344   1.406   1_545  A
C344        C345   1.396       .  A
C344        N349   1.428       .  S
C345        H350   1.078       .  S
C345        C346   1.406       .  A
C346        C347   1.418   1_565  A
C347        N351   1.428       .  S
C348        C353   1.407       .  A
C348        C357   1.402   1_545  A
N349        O364   1.262       .  A
N349        O365   1.262       .  A
N351        O362   1.262       .  A
N351        O363   1.262       .  A
C353        C354   1.399       .  A
C353        N358   1.427       .  S
C354        H359   1.081       .  S
C354        C355   1.403   1_545  A
C355        C356   1.411       .  A
C356        C357   1.401       .  A
C356        N360   1.429       .  S
C357        H361   1.080       .  S
N358        O368   1.262       .  A
N358        O369   1.261       .  A
N360        O366   1.262       .  A
N360        O367   1.262       .  A
