geometry optimzed in LAMMPS
_audit_creation_date              2020-12-01 
_audit_creation_method            'lammps2cif' 
_symmetry_space_group_name_H-M    'P1' 
_symmetry_Int_Tables_number       1 
_symmetry_cell_setting            triclinic 
loop_ 
_symmetry_equiv_pos_as_xyz 
  x,y,z 
_cell_length_a                    32.29232635 
_cell_length_b                    32.42697926034414 
_cell_length_c                    25.32133998485415 
_cell_angle_alpha                 89.99755701277377 
_cell_angle_beta                  90.00375235817721 
_cell_angle_gamma                 124.61849631028659 
loop_ 
_atom_site_label 
_atom_site_type_symbol 
_atom_site_fract_x 
_atom_site_fract_y 
_atom_site_fract_z 
_atom_site_charge 
O1          O  0.49242112  0.44319950  0.19382987    -0.70600
O2          O  0.44456389  0.49412388  0.30623418    -0.71600
O3          O  0.44445070  0.49401372  0.19382155    -0.60200
O4          O  0.49253215  0.44331239  0.30625059    -0.68600
O5          O  0.56721084  0.51646152  0.30613486    -0.68200
O6          O  0.51914124  0.56715060  0.19373895    -0.59400
O7          O  0.51925430  0.56726142  0.30612473    -0.72000
O8          O  0.56709920  0.51634984  0.19375225    -0.70700
Cu9        Cu  0.46585020  0.46607641  0.25003698     1.04600
Cu10       Cu  0.54580946  0.54438327  0.24993320     1.04300
C11         C  0.53708100  0.47200864  0.17585472     0.95600
C12         C  0.47460390  0.53847008  0.32411948     0.94700
C13         C  0.47445500  0.53832809  0.17584075     0.86900
C14         C  0.53722432  0.47215651  0.32413699     0.93100
C15         C  0.84924936  0.44042993  0.45357258     0.82500
N16         N  0.79837275  0.41517605  0.45350497    -0.75800
C17         C  0.77292785  0.40277585  0.49999079     0.85000
N18         N  0.79841108  0.41537787  0.04647546    -0.75700
C19         C  0.84929577  0.44070778  0.04640605     0.85100
N20         N  0.87455381  0.45287394  0.49998798    -0.77500
C21         C  0.57857302  0.42987332  0.45360755     0.82500
N22         N  0.56663271  0.44149559  0.50001598    -0.75800
C23         C  0.57832752  0.42960472  0.04642251     0.85000
N24         N  0.60241680  0.40634107  0.04649996    -0.75700
C25         C  0.61462122  0.39485903  0.50001423     0.85100
N26         N  0.60259467  0.40654177  0.45352968    -0.77400
C27         C  0.63724401  0.29290081  0.00000195     0.05400
C28         C  0.68991099  0.32128069  0.99999245    -0.10700
C29         C  0.71791091  0.37371011  0.99999394     0.02900
C30         C  0.69312868  0.39783592  0.00000324    -0.09200
C31         C  0.64039488  0.36952270  0.00001188     0.05400
C32         C  0.61248935  0.31704370  0.00001218    -0.08700
H33         H  0.70907431  0.30259771  0.99998576     0.11000
H34         H  0.71475697  0.43842339  0.00000345     0.08600
H35         H  0.57171276  0.29510766  0.00001843     0.08400
C36         C  0.57055490  0.16212761  0.45358693     0.82500
N37         N  0.59580949  0.21278128  0.45351645    -0.75800
C38         C  0.60838658  0.23812368  0.00000199     0.85000
N39         N  0.59596707  0.21278843  0.04648800    -0.75700
C40         C  0.57074446  0.16213799  0.04641916     0.85100
N41         N  0.55831205  0.13694799  0.00000301    -0.77400
O42         O  0.52309327  0.96187984  0.30628189    -0.70600
O43         O  0.56510646  0.06591051  0.19384176    -0.71600
O44         O  0.56502510  0.06589215  0.30627374    -0.60200
O45         O  0.52317804  0.96190357  0.19383687    -0.68600
O46         O  0.44631935  0.94548059  0.19375409    -0.68200
O47         O  0.48816988  0.04947936  0.30620564    -0.59400
O48         O  0.48825116  0.04949740  0.19376069    -0.72000
O49         O  0.44623458  0.94545607  0.30621250    -0.70700
Cu50       Cu  0.54681245  0.01448129  0.25006220     1.04600
Cu51       Cu  0.46452867  0.99689312  0.24998118     1.04300
C52         C  0.47822643  0.93776398  0.32418787     0.95600
C53         C  0.53311951  0.07360379  0.17585923     0.94700
C54         C  0.53301505  0.07358390  0.32417699     0.86900
C55         C  0.47833880  0.93779938  0.17585090     0.93100
O56         O  0.94563662  0.44557371  0.30616772    -0.70600
O57         O  0.05001765  0.48699832  0.19372548    -0.71600
O58         O  0.04998677  0.48686202  0.30617989    -0.60200
O59         O  0.94566763  0.44570778  0.19371516    -0.68600
O60         O  0.96252228  0.52239246  0.19383245    -0.68200
O61         O  0.06682025  0.56353904  0.30627354    -0.59400
O62         O  0.06685206  0.56367603  0.19385992    -0.72000
O63         O  0.96249342  0.52225975  0.30627148    -0.70700
Cu64       Cu  0.99722423  0.46357372  0.24994282     1.04600
Cu65       Cu  0.01527359  0.54567159  0.25006366     1.04300
C66         C  0.93811296  0.47756756  0.32416001     0.95600
C67         C  0.07438939  0.53169890  0.17585480     0.94700
C68         C  0.07434890  0.53152040  0.32416834     0.86900
C69         C  0.93815148  0.47774071  0.17582931     0.93100
C70         C  0.43370669  0.58122734  0.04639611     0.82500
N71         N  0.41011947  0.60499165  0.04647476    -0.75800
C72         C  0.39836524  0.61694507  0.99999035     0.85000
N73         N  0.41030624  0.60513032  0.45350501    -0.75700
C74         C  0.43397673  0.58144896  0.45358126     0.85100
N75         N  0.44542538  0.56938467  0.99998810    -0.77400
C76         C  0.37529814  0.71858710  0.00000705     0.05400
C77         C  0.40018896  0.69458554  0.49999578    -0.10700
C78         C  0.37249426  0.64210960  0.49999314     0.02900
C79         C  0.31976832  0.61359023  0.49999994    -0.09200
C80         C  0.29474723  0.63745776  0.50001045     0.05400
C81         C  0.32250150  0.68987409  0.50001473    -0.08700
H82         H  0.44099496  0.71663038  0.99999097     0.11000
H83         H  0.29831399  0.57301058  0.49999774     0.08600
H84         H  0.30331875  0.70859501  0.00002238     0.08400
C85         C  0.16333028  0.56947270  0.04642995     0.82500
N86         N  0.21426379  0.59539118  0.04649855    -0.75800
C87         C  0.23974008  0.60815655  0.00001301     0.85000
N88         N  0.21421287  0.59510321  0.45352854    -0.75700
C89         C  0.16327466  0.56913343  0.45359867     0.85100
N90         N  0.13799301  0.55669814  0.00001535    -0.77400
C91         C  0.44110732  0.84930449  0.04642530     0.82500
N92         N  0.45338699  0.87447678  0.00000797    -0.75800
C93         C  0.44087463  0.84920845  0.45359008     0.85000
N94         N  0.41600807  0.79859137  0.45352077    -0.75700
C95         C  0.40396297  0.77336444  0.00000789     0.85100
N96         N  0.41620283  0.79868403  0.04649419    -0.77400
C97         C  0.10947240  0.54550049  0.36652301    -0.11000
C98         C  0.13589197  0.55662261  0.40491028    -0.12500
C99         C  0.10953124  0.54577413  0.13350567    -0.11000
C100        C  0.13595512  0.55694777  0.09511880    -0.12500
C101        C  0.46419455  0.90279269  0.13349663    -0.11000
C102        C  0.45320521  0.87650312  0.09511858    -0.12500
C103        C  0.46401746  0.90272752  0.36652975    -0.11000
C104        C  0.45298902  0.87641503  0.40489727    -0.12500
C105        C  0.55828276  0.13490703  0.40489666    -0.11000
C106        C  0.54718933  0.10860163  0.36651913    -0.12500
C107        C  0.54734403  0.10862077  0.13350280    -0.11000
C108        C  0.55846080  0.13491918  0.09511384    -0.12500
C109        C  0.87657684  0.45259167  0.40488363    -0.11000
C110        C  0.90297486  0.46354817  0.36650692    -0.12500
C111        C  0.87663487  0.45288205  0.09509580    -0.11000
C112        C  0.90303098  0.46380855  0.13347483    -0.12500
C113        C  0.55322363  0.45493596  0.13350444    -0.11000
C114        C  0.56549123  0.44234947  0.09511274    -0.12500
C115        C  0.55343704  0.45516584  0.36650802    -0.11000
C116        C  0.56573391  0.44261876  0.40491346    -0.12500
C117        C  0.44648911  0.56838901  0.40488793    -0.11000
C118        C  0.45853139  0.55559693  0.36648340    -0.12500
C119        C  0.45829989  0.55538719  0.13348330    -0.11000
C120        C  0.44621892  0.56815682  0.09508724    -0.12500
O121        O  0.49253407  0.44330834  0.69376534    -0.70600
O122        O  0.44444922  0.49401820  0.80616882    -0.71600
O123        O  0.44456557  0.49411965  0.69375614    -0.60200
O124        O  0.49241974  0.44320416  0.80618606    -0.68600
O125        O  0.56709781  0.51635460  0.80626604    -0.68200
O126        O  0.51925608  0.56725719  0.69386781    -0.59400
O127        O  0.51913960  0.56715510  0.80625354    -0.72000
O128        O  0.56721267  0.51645741  0.69388353    -0.70700
Cu129      Cu  0.46585042  0.46607665  0.74996611     1.04600
Cu130      Cu  0.54580958  0.54438351  0.75007230     1.04300
C131        C  0.53722675  0.47215114  0.67588397     0.95600
C132        C  0.47445288  0.53833396  0.82414679     0.94700
C133        C  0.47460621  0.53846449  0.67586803     0.86900
C134        C  0.53707910  0.47201470  0.82416620     0.93100
C135        C  0.84928828  0.44069944  0.95357127     0.82500
N136        N  0.79840329  0.41536888  0.95350463    -0.75800
C137        C  0.77295326  0.40293171  0.99999091     0.85000
N138        N  0.79838045  0.41518467  0.54647495    -0.75700
C139        C  0.84925676  0.44043793  0.54640463     0.85100
N140        N  0.87459577  0.45317837  0.99998800    -0.77500
C141        C  0.57832639  0.42960971  0.95360867     0.82500
N142        N  0.56635579  0.44120131  0.00001590    -0.75800
C143        C  0.57857422  0.42986835  0.54642375     0.85000
N144        N  0.60259573  0.40653635  0.54650002    -0.75700
C145        C  0.61447397  0.39469581  0.00001426     0.85100
N146        N  0.60241582  0.40634652  0.95352972    -0.77400
C147        C  0.63715816  0.29289800  0.50000184     0.05400
C148        C  0.68982087  0.32120498  0.49999240    -0.10700
C149        C  0.71789273  0.37363635  0.49999379     0.02900
C150        C  0.69318955  0.39784084  0.50000319    -0.09200
C151        C  0.64045929  0.36960194  0.50001180     0.05400
C152        C  0.61247924  0.31711752  0.50001193    -0.08700
H153        H  0.70892565  0.30246322  0.49998583     0.11000
H154        H  0.71487623  0.43843147  0.50000352     0.08600
H155        H  0.57170525  0.29523756  0.50001807     0.08400
C156        C  0.57075057  0.16213881  0.95358631     0.82500
N157        N  0.59597370  0.21278935  0.95351649    -0.75800
C158        C  0.60823281  0.23811698  0.50000200     0.85000
N159        N  0.59580297  0.21278046  0.54648810    -0.75700
C160        C  0.57054900  0.16212688  0.54641874     0.85100
N161        N  0.55810341  0.13693601  0.50000312    -0.77400
O162        O  0.52318277  0.96190423  0.80617657    -0.70600
O163        O  0.56502073  0.06589155  0.69373684    -0.71600
O164        O  0.56511127  0.06591109  0.80616870    -0.60200
O165        O  0.52308894  0.96187913  0.69373171    -0.68600
O166        O  0.44623023  0.94545527  0.69379778    -0.68200
O167        O  0.48825597  0.04949797  0.80624651    -0.59400
O168        O  0.48816551  0.04947885  0.69380158    -0.72000
O169        O  0.44632407  0.94548133  0.80625617    -0.70700
Cu170      Cu  0.54681266  0.01448127  0.74994986     1.04600
Cu171      Cu  0.46452880  0.99689311  0.75002743     1.04300
C172        C  0.47834496  0.93780046  0.82416157     0.95600
C173        C  0.53300941  0.07358328  0.67583156     0.94700
C174        C  0.53312565  0.07360449  0.82414918     0.86900
C175        C  0.47822070  0.93776284  0.67582472     0.93100
O176        O  0.94565991  0.44570026  0.80627428    -0.70600
O177        O  0.04999421  0.48686913  0.69383547    -0.71600
O178        O  0.05001033  0.48699114  0.80628975    -0.60200
O179        O  0.94564411  0.44558080  0.69382177    -0.68600
O180        O  0.96250068  0.52226677  0.69372028    -0.68200
O181        O  0.06684452  0.56366878  0.80615758    -0.59400
O182        O  0.06682741  0.56354602  0.69374389    -0.72000
O183        O  0.96251455  0.52238492  0.80615932    -0.70700
Cu184      Cu  0.99722418  0.46357358  0.75005947     1.04600
Cu185      Cu  0.01527338  0.54567142  0.74994107     1.04300
C186        C  0.93814147  0.47773098  0.82415748     0.95600
C187        C  0.07435838  0.53152962  0.67585180     0.94700
C188        C  0.07437984  0.53168961  0.82416530     0.86900
C189        C  0.93812262  0.47757676  0.67582679     0.93100
C190        C  0.43397839  0.58144411  0.54639567     0.82500
N191        N  0.41030800  0.60512523  0.54647401    -0.75800
C192        C  0.39851444  0.61703923  0.49999027     0.85000
N193        N  0.41011792  0.60499695  0.95350437    -0.75700
C194        C  0.43370528  0.58123243  0.95358098     0.85100
N195        N  0.44573578  0.56963871  0.49998803    -0.77400
C196        C  0.37518698  0.71849627  0.50000699     0.05400
C197        C  0.40021612  0.69459146  0.99999599    -0.10700
C198        C  0.37243812  0.64210986  0.99999324     0.02900
C199        C  0.31971575  0.61367378  0.99999998    -0.09200
C200        C  0.29478160  0.63762849  0.00001062     0.05400
C201        C  0.32261664  0.69004746  0.00001500    -0.08700
H202        H  0.44097014  0.71668683  0.49999065     0.11000
H203        H  0.29819624  0.57309023  0.99999763     0.08600
H204        H  0.30313776  0.70835519  0.50002207     0.08400
C205        C  0.16328156  0.56914157  0.54643077     0.82500
N206        N  0.21422003  0.59511204  0.54649870    -0.75800
C207        C  0.23969945  0.60789973  0.50001292     0.85000
N208        N  0.21425661  0.59538250  0.95352884    -0.75700
C209        C  0.16332331  0.56946452  0.95359968     0.85100
N210        N  0.13794298  0.55634534  0.50001524    -0.77400
C211        C  0.44086855  0.84920686  0.54642561     0.82500
N212        N  0.45313141  0.87437595  0.50000779    -0.75800
C213        C  0.44111378  0.84930625  0.95359068     0.85000
N214        N  0.41620997  0.79868597  0.95352169    -0.75700
C215        C  0.40377447  0.77327076  0.50000785     0.85100
N216        N  0.41600129  0.79858958  0.54649500    -0.77400
C217        C  0.10951782  0.54576055  0.86652164    -0.11000
C218        C  0.13594195  0.55693401  0.90491140    -0.12500
C219        C  0.10948575  0.54551413  0.63350426    -0.11000
C220        C  0.13590497  0.55663636  0.59511975    -0.12500
C221        C  0.46400864  0.90272540  0.63348435    -0.11000
C222        C  0.45297969  0.87641250  0.59511799    -0.12500
C223        C  0.46420404  0.90279493  0.86651754    -0.11000
C224        C  0.45321526  0.87650600  0.90489695    -0.12500
C225        C  0.55847022  0.13492038  0.90489255    -0.11000
C226        C  0.54735312  0.10862184  0.86650458    -0.12500
C227        C  0.54718080  0.10860073  0.63348849    -0.11000
C228        C  0.55827377  0.13490601  0.59510996    -0.12500
C229        C  0.87662085  0.45286792  0.90488072    -0.11000
C230        C  0.90301679  0.46379436  0.86650462    -0.12500
C231        C  0.87659069  0.45260524  0.59509279    -0.11000
C232        C  0.90298877  0.46356173  0.63347247    -0.12500
C233        C  0.55344040  0.45515789  0.63352047    -0.11000
C234        C  0.56573707  0.44261041  0.59511833    -0.12500
C235        C  0.55322091  0.45494458  0.86652393    -0.11000
C236        C  0.56548852  0.44235820  0.90491885    -0.12500
C237        C  0.44621572  0.56816565  0.90488917    -0.11000
C238        C  0.45829683  0.55539579  0.86649652    -0.12500
C239        C  0.45853484  0.55558868  0.63349628    -0.11000
C240        C  0.44649281  0.56838063  0.59508834    -0.12500
loop_ 
_geom_bond_atom_site_label_1 
_geom_bond_atom_site_label_2 
_geom_bond_distance 
_geom_bond_site_symmetry_2 
_ccdc_geom_bond_type 
O1           Cu9   2.009       .  S
O1           C11   1.276       .  A
O2           Cu9   2.009       .  S
O2           C12   1.276       .  A
O3           Cu9   2.009       .  S
O3           C13   1.276       .  A
O4           Cu9   2.009       .  S
O4           C14   1.276       .  A
O5          Cu10   2.008       .  S
O5           C14   1.276       .  A
O6          Cu10   2.008       .  S
O6           C13   1.276       .  A
O7          Cu10   2.008       .  S
O7           C12   1.276       .  A
O8          Cu10   2.008       .  S
O8           C11   1.276       .  A
Cu9         Cu10   2.380       .  S
C11         C113   1.434       .  S
C12         C118   1.434       .  S
C13         C119   1.434       .  S
C14         C115   1.434       .  S
C15         C109   1.435       .  S
C15          N16   1.357       .  A
C15          N20   1.355       .  A
N16          C17   1.359       .  A
C17         N138   1.359       .  A
C17         C149   1.464       .  S
N18          C19   1.357       .  A
N18         C137   1.359   1_554  A
C19         C111   1.435       .  S
C19         N140   1.355   1_554  A
N20         C139   1.355       .  A
C21         C116   1.434       .  S
C21          N22   1.355       .  A
C21          N26   1.357       .  A
N22         C143   1.355       .  A
C23         C114   1.434       .  S
C23          N24   1.357       .  A
C23         N142   1.355       .  A
N24         C145   1.359       .  A
C25          N26   1.359       .  A
C25         N144   1.359       .  A
C25         C151   1.464       .  S
C27          C38   1.464       .  S
C27          C28   1.400   1_554  A
C27          C32   1.401       .  A
C28          C29   1.400       .  A
C28          H33   1.084       .  S
C29         C137   1.464       .  S
C29          C30   1.401   1_556  A
C30          C31   1.402       .  A
C30          H34   1.084       .  S
C31         C145   1.464       .  S
C31          C32   1.402       .  A
C32          H35   1.084       .  S
C36         C105   1.435       .  S
C36          N37   1.357       .  A
C36         N161   1.355       .  A
N37         C158   1.359       .  A
C38          N39   1.359       .  A
C38         N157   1.359   1_554  A
N39          C40   1.357       .  A
C40         C108   1.435       .  S
C40          N41   1.355       .  A
N41         C156   1.355   1_554  A
O42         Cu50   2.010   1_565  S
O42          C52   1.276       .  A
O43         Cu50   2.009       .  S
O43          C53   1.276       .  A
O44         Cu50   2.009       .  S
O44          C54   1.276       .  A
O45         Cu50   2.009   1_565  S
O45          C55   1.276       .  A
O46         Cu51   2.010       .  S
O46          C55   1.276       .  A
O47         Cu51   2.010   1_545  S
O47          C54   1.276       .  A
O48         Cu51   2.010   1_545  S
O48          C53   1.276       .  A
O49         Cu51   2.010       .  S
O49          C52   1.276       .  A
Cu50        Cu51   2.380   1_545  S
C52         C103   1.435       .  S
C53         C107   1.435       .  S
C54         C106   1.435       .  S
C55         C101   1.435       .  S
O56         Cu64   2.010       .  S
O56          C66   1.276       .  A
O57         Cu64   2.010   1_455  S
O57          C67   1.276       .  A
O58         Cu64   2.010   1_455  S
O58          C68   1.276       .  A
O59         Cu64   2.010       .  S
O59          C69   1.276       .  A
O60         Cu65   2.009   1_655  S
O60          C69   1.276       .  A
O61         Cu65   2.009       .  S
O61          C68   1.276       .  A
O62         Cu65   2.009       .  S
O62          C67   1.276       .  A
O63         Cu65   2.009   1_655  S
O63          C66   1.276       .  A
Cu64        Cu65   2.380   1_655  S
C66         C110   1.435       .  S
C67          C99   1.434       .  S
C68          C97   1.435       .  S
C69         C112   1.435       .  S
C70         C120   1.434       .  S
C70          N71   1.357       .  A
C70          N75   1.355   1_554  A
N71          C72   1.359   1_554  A
C72         N193   1.359       .  A
C72         C198   1.464       .  S
N73          C74   1.357       .  A
N73         C192   1.359       .  A
C74         C117   1.434       .  S
C74         N195   1.355       .  A
N75         C194   1.355       .  A
C76          C95   1.464       .  S
C76         C197   1.402   1_554  A
C76         C201   1.401       .  A
C77          C78   1.402       .  A
C77         C196   1.402       .  A
C77         H202   1.084       .  S
C78         C192   1.464       .  S
C78          C79   1.402       .  A
C79          C80   1.401       .  A
C79          H83   1.084       .  S
C80         C207   1.464       .  S
C80          C81   1.400       .  A
C81         C196   1.401       .  A
C81         H204   1.084       .  S
H82         C197   1.084       .  S
H84         C201   1.084       .  S
C85         C100   1.435       .  S
C85          N86   1.357       .  A
C85          N90   1.355       .  A
N86          C87   1.359       .  A
C87         N208   1.359   1_554  A
C87         C200   1.464       .  S
N88          C89   1.357       .  A
N88         C207   1.359       .  A
C89          C98   1.435       .  S
C89         N210   1.355       .  A
N90         C209   1.355   1_554  A
C91         C102   1.435       .  S
C91          N92   1.355       .  A
C91          N96   1.357       .  A
N92         C213   1.355   1_554  A
C93         C104   1.435       .  S
C93          N94   1.357       .  A
C93         N212   1.355       .  A
N94         C215   1.359       .  A
C95          N96   1.359       .  A
C95         N214   1.359   1_554  A
C97          C98   1.205       .  T
C99         C100   1.205       .  T
C101        C102   1.206       .  T
C103        C104   1.206       .  T
C105        C106   1.205       .  T
C107        C108   1.205       .  T
C109        C110   1.205       .  T
C111        C112   1.206       .  T
C113        C114   1.205       .  T
C115        C116   1.205       .  T
C117        C118   1.205       .  T
C119        C120   1.205       .  T
O121       Cu129   2.009       .  S
O121        C131   1.276       .  A
O122       Cu129   2.009       .  S
O122        C132   1.276       .  A
O123       Cu129   2.009       .  S
O123        C133   1.276       .  A
O124       Cu129   2.009       .  S
O124        C134   1.276       .  A
O125       Cu130   2.008       .  S
O125        C134   1.276       .  A
O126       Cu130   2.008       .  S
O126        C133   1.276       .  A
O127       Cu130   2.008       .  S
O127        C132   1.276       .  A
O128       Cu130   2.008       .  S
O128        C131   1.276       .  A
Cu129      Cu130   2.380       .  S
C131        C233   1.434       .  S
C132        C238   1.434       .  S
C133        C239   1.434       .  S
C134        C235   1.434       .  S
C135        C229   1.435       .  S
C135        N136   1.357       .  A
C135        N140   1.355       .  A
N136        C137   1.359       .  A
N138        C139   1.357       .  A
C139        C231   1.435       .  S
C141        C236   1.434       .  S
C141        N142   1.355   1_556  A
C141        N146   1.357       .  A
C143        C234   1.434       .  S
C143        N144   1.357       .  A
C145        N146   1.359   1_554  A
C147        C158   1.464       .  S
C147        C148   1.400       .  A
C147        C152   1.401       .  A
C148        C149   1.400       .  A
C148        H153   1.084       .  S
C149        C150   1.401       .  A
C150        C151   1.402       .  A
C150        H154   1.084       .  S
C151        C152   1.402       .  A
C152        H155   1.084       .  S
C156        C225   1.435       .  S
C156        N157   1.357       .  A
C158        N159   1.359       .  A
N159        C160   1.357       .  A
C160        C228   1.435       .  S
C160        N161   1.355       .  A
O162       Cu170   2.009   1_565  S
O162        C172   1.276       .  A
O163       Cu170   2.009       .  S
O163        C173   1.276       .  A
O164       Cu170   2.009       .  S
O164        C174   1.276       .  A
O165       Cu170   2.010   1_565  S
O165        C175   1.276       .  A
O166       Cu171   2.010       .  S
O166        C175   1.276       .  A
O167       Cu171   2.010   1_545  S
O167        C174   1.276       .  A
O168       Cu171   2.010   1_545  S
O168        C173   1.276       .  A
O169       Cu171   2.010       .  S
O169        C172   1.276       .  A
Cu170      Cu171   2.380   1_545  S
C172        C223   1.435       .  S
C173        C227   1.435       .  S
C174        C226   1.435       .  S
C175        C221   1.435       .  S
O176       Cu184   2.010       .  S
O176        C186   1.276       .  A
O177       Cu184   2.010   1_455  S
O177        C187   1.276       .  A
O178       Cu184   2.010   1_455  S
O178        C188   1.276       .  A
O179       Cu184   2.010       .  S
O179        C189   1.276       .  A
O180       Cu185   2.009   1_655  S
O180        C189   1.276       .  A
O181       Cu185   2.009       .  S
O181        C188   1.276       .  A
O182       Cu185   2.009       .  S
O182        C187   1.276       .  A
O183       Cu185   2.009   1_655  S
O183        C186   1.276       .  A
Cu184      Cu185   2.380   1_655  S
C186        C230   1.435       .  S
C187        C219   1.435       .  S
C188        C217   1.434       .  S
C189        C232   1.435       .  S
C190        C240   1.434       .  S
C190        N191   1.357       .  A
C190        N195   1.355       .  A
N191        C192   1.359       .  A
N193        C194   1.357       .  A
C194        C237   1.434       .  S
C196        C215   1.464       .  S
C197        C198   1.402       .  A
C198        C199   1.402       .  A
C199        C200   1.401   1_556  A
C199        H203   1.084       .  S
C200        C201   1.400       .  A
C205        C220   1.435       .  S
C205        N206   1.357       .  A
C205        N210   1.355       .  A
N206        C207   1.359       .  A
N208        C209   1.357       .  A
C209        C218   1.435       .  S
C211        C222   1.435       .  S
C211        N212   1.355       .  A
C211        N216   1.357       .  A
C213        C224   1.435       .  S
C213        N214   1.357       .  A
C215        N216   1.359       .  A
C217        C218   1.205       .  T
C219        C220   1.205       .  T
C221        C222   1.206       .  T
C223        C224   1.206       .  T
C225        C226   1.205       .  T
C227        C228   1.205       .  T
C229        C230   1.206       .  T
C231        C232   1.205       .  T
C233        C234   1.205       .  T
C235        C236   1.205       .  T
C237        C238   1.205       .  T
C239        C240   1.205       .  T
