geometry optimzed in LAMMPS
_audit_creation_date              2020-12-01 
_audit_creation_method            'lammps2cif' 
_symmetry_space_group_name_H-M    'P1' 
_symmetry_Int_Tables_number       1 
_symmetry_cell_setting            triclinic 
loop_ 
_symmetry_equiv_pos_as_xyz 
  x,y,z 
_cell_length_a                    29.33577263 
_cell_length_b                    29.29291138275388 
_cell_length_c                    37.874624605097715 
_cell_angle_alpha                 91.13258109584338 
_cell_angle_beta                  90.01727154737189 
_cell_angle_gamma                 122.18126093233984 
loop_ 
_atom_site_label 
_atom_site_type_symbol 
_atom_site_fract_x 
_atom_site_fract_y 
_atom_site_fract_z 
_atom_site_charge 
C1          C  0.93145429  0.39283278  0.01325139     0.82600
N2          N  0.90072290  0.37628786  0.04270571    -0.75700
C3          C  0.84617448  0.34830345  0.03976583     0.85100
N4          N  0.80251077  0.32112175  0.33938902    -0.75600
C5          C  0.83220026  0.34009111  0.30972759     0.85200
N6          N  0.88689693  0.37035159  0.31216862    -0.77400
C7          C  0.60029860  0.94593548  0.99392841     0.82600
N8          N  0.60163068  0.96839924  0.02609932    -0.75700
C9          C  0.62254609  0.02236651  0.02935002     0.85100
N10         N  0.64182889  0.05367172  0.00054364    -0.75600
C11         C  0.61302071  0.01508237  0.30015129     0.85200
N12         N  0.59549785  0.96204985  0.29654149    -0.77400
C13         C  0.47672160  0.26718239  0.99066642     0.82600
N14         N  0.47309411  0.24459898  0.31028509    -0.75700
C15         C  0.50458013  0.22360329  0.30741347     0.85100
N16         N  0.53746028  0.22349245  0.99991260    -0.75600
C17         C  0.51843340  0.23657992  0.02844665     0.85200
N18         N  0.48825041  0.25871813  0.02389644    -0.77400
O19         O  0.56366224  0.16438217  0.20901035    -0.79400
C20         C  0.74733545  0.27637757  0.12283678     1.00000
O21         O  0.72762580  0.29766021  0.14161825    -0.68500
O22         O  0.62548206  0.25710225  0.12828435    -0.72100
Al23       Al  0.66437674  0.26694195  0.17052966     1.49000
C24         C  0.57849798  0.21918870  0.12028012     0.95200
O25         O  0.59349973  0.11474979  0.12457530    -0.78300
O26         O  0.68114656  0.14775426  0.21016692    -0.73100
Al27       Al  0.58272515  0.14311561  0.16693664     1.90100
O28         O  0.67143267  0.12592794  0.13842951    -0.71000
O29         O  0.75218661  0.24919891  0.19953880    -0.70800
O30         O  0.73562477  0.22903796  0.12788518    -0.76500
O31         O  0.70500193  0.28498431  0.21311606    -0.74700
O32         O  0.65073057  0.19967101  0.16878298    -1.10800
O33         O  0.60432983  0.25117641  0.19980843    -0.70000
C34         C  0.57176515  0.21001314  0.21695204     1.00700
C35         C  0.63000747  0.10535132  0.11889300     0.97100
Al36       Al  0.70531036  0.18889299  0.16897114     1.55600
O37         O  0.55531131  0.17608479  0.13735594    -0.74600
C38         C  0.74388706  0.27934004  0.21905057     1.01300
C39         C  0.63471205  0.10771652  0.21545855     0.96200
O40         O  0.59512567  0.09770244  0.19619798    -0.79900
C41         C  0.08170434  0.46203138  0.99160602     0.82600
N42         N  0.09418552  0.47288747  0.29599572    -0.75700
C43         C  0.14785934  0.49389172  0.29891348     0.85100
N44         N  0.19009027  0.50840269  0.99653393    -0.75600
C45         C  0.16080413  0.49901260  0.02618276     0.85200
N46         N  0.10666581  0.47558068  0.02378108    -0.77400
C47         C  0.53150609  0.79434517  0.01029792     0.82600
N48         N  0.51500423  0.76274818  0.03901146    -0.75700
C49         C  0.48855747  0.70843382  0.03508140     0.85100
N50         N  0.47772786  0.68527518  0.00235389    -0.75600
C51         C  0.47984483  0.70313456  0.30668759     0.85200
N52         N  0.50935191  0.75769106  0.31048464    -0.77400
C53         C  0.39860013  0.33734699  0.00509181     0.82600
N54         N  0.37935467  0.35032551  0.03352672    -0.75700
C55         C  0.35703733  0.38019847  0.02976199     0.85100
N56         N  0.35453165  0.39803497  0.99752231    -0.75600
C57         C  0.34612106  0.36924143  0.29722428     0.85200
N58         N  0.36964606  0.34021413  0.29426919    -0.77400
O59         O  0.28693140  0.44220402  0.12249781    -0.79400
C60         C  0.41171731  0.61987266  0.21555201     1.00000
O61         O  0.42927505  0.59637201  0.19701104    -0.68500
O62         O  0.37670936  0.49310364  0.20843009    -0.72100
Al63       Al  0.39291748  0.53300885  0.16686418     1.49000
C64         C  0.33584727  0.44700967  0.21321251     0.95200
O65         O  0.24391186  0.47682271  0.20715935    -0.78300
O66         O  0.28630082  0.56708343  0.12397788    -0.71900
Al67       Al  0.26853606  0.46279706  0.16498082     1.90100
O68         O  0.26371178  0.55857150  0.19536742    -0.71000
O69         O  0.38885690  0.62854890  0.13797116    -0.70800
O70         O  0.36687717  0.61399612  0.20895741    -0.76500
O71         O  0.41611617  0.57338707  0.12537616    -0.74700
O72         O  0.32943412  0.52773713  0.16615009    -1.10800
O73         O  0.37079832  0.47101494  0.13677970    -0.70000
C74         C  0.33009932  0.44412145  0.11679724     1.00700
C75         C  0.23972413  0.51667424  0.21362385     0.97100
Al76       Al  0.32667172  0.58713311  0.16654443     1.55600
O77         O  0.29468387  0.42791714  0.19354931    -0.74600
C78         C  0.41589495  0.61529192  0.11943715     1.01300
C79         C  0.24317111  0.52296877  0.11739436     0.96200
O80         O  0.22820225  0.48245165  0.13620639    -0.79900
C81         C  0.33895559  0.39267551  0.26661886    -0.10900
C82         C  0.33622493  0.41585808  0.24164667    -0.12400
C83         C  0.34160619  0.39770796  0.06042908    -0.10900
C84         C  0.33387808  0.41650088  0.08653936    -0.12400
C85         C  0.44259099  0.65301670  0.24527753    -0.10900
C86         C  0.46308128  0.67799546  0.27234660    -0.12400
C87         C  0.44595631  0.64815589  0.09057885    -0.10900
C88         C  0.46749460  0.67549938  0.06538428    -0.12400
C89         C  0.21136302  0.51778017  0.08717258    -0.10900
C90         C  0.18689686  0.51052907  0.06000874    -0.12400
C91         C  0.20704890  0.51394254  0.24244873    -0.10900
C92         C  0.17984764  0.50719495  0.26788991    -0.12400
C93         C  0.42517815  0.30719291  0.01082930    -0.14000
C94         C  0.44630205  0.29339479  0.98449424    -0.29200
H95         H  0.41870514  0.28661391  0.29265478     0.15000
H96         H  0.44236438  0.30269299  0.95745709     0.15600
C97         C  0.55164768  0.22469127  0.09040514    -0.10900
C98         C  0.53361164  0.22995682  0.06319711    -0.12400
C99         C  0.54455424  0.21543102  0.24677956    -0.10900
C100        C  0.52451977  0.21927870  0.27362012    -0.12400
C101        C  0.57624409  0.88738820  0.98885921    -0.14000
C102        C  0.55812249  0.85319643  0.01571117    -0.29200
H103        H  0.57289601  0.87203173  0.96201552     0.15000
H104        H  0.55654671  0.85654580  0.37502241     0.15600
C105        C  0.62073390  0.04623849  0.26946722    -0.10900
C106        C  0.62673634  0.07325836  0.24424384    -0.12400
C107        C  0.62299197  0.04672801  0.06279933    -0.10900
C108        C  0.62512447  0.07160306  0.08920707    -0.12400
C109        C  0.99063308  0.42172611  0.01671139    -0.14000
C110        C  0.02272942  0.43541877  0.98842959    -0.29200
H111        H  0.00798207  0.43075436  0.04318279     0.15000
H112        H  0.98800992  0.42592118  0.29427698     0.15600
C113        C  0.77864178  0.30631058  0.24911162    -0.10900
C114        C  0.80525643  0.32450599  0.27589009    -0.12400
C115        C  0.81340499  0.32774666  0.07056446    -0.10900
C116        C  0.78385805  0.30637101  0.09510937    -0.12400
C117        C  0.91170756  0.38216172  0.34445498     0.82600
N118        N  0.88159669  0.36309728  0.37391987    -0.75700
C119        C  0.82721105  0.33292790  0.37145466     0.85100
N120        N  0.81840321  0.33444178  0.66863618    -0.75600
C121        C  0.83881440  0.34444825  0.63564030     0.85200
N122        N  0.89290907  0.37399789  0.63111033    -0.77400
C123        C  0.58626170  0.93187876  0.32552477     0.82600
N124        N  0.59440166  0.95511911  0.35828500    -0.75700
C125        C  0.61207865  0.00825244  0.36191241     0.85100
N126        N  0.62110151  0.03811953  0.33282564    -0.75600
C127        C  0.62626841  0.00903962  0.63946690     0.85200
N128        N  0.60513314  0.95526885  0.64253174    -0.77400
C129        C  0.45616840  0.25044380  0.34260802     0.82600
N130        N  0.48024062  0.24410459  0.64456103    -0.75700
C131        C  0.50899267  0.22001810  0.64173695     0.85100
N132        N  0.51951612  0.20885961  0.33683446    -0.75600
C133        C  0.50259382  0.21451720  0.36900975     0.85200
N134        N  0.47129343  0.23555771  0.37186968    -0.77400
O135        O  0.55815150  0.14290199  0.54641143    -0.79400
C136        C  0.73735979  0.25819463  0.45724316     1.00000
O137        O  0.71759510  0.27849690  0.47673090    -0.68500
O138        O  0.61533002  0.23194928  0.46302971    -0.72100
Al139      Al  0.65457913  0.24540268  0.50533768     1.49000
C140        C  0.56867758  0.19264815  0.45602921     0.95200
O141        O  0.58807843  0.09275008  0.46210363    -0.78300
O142        O  0.67986139  0.13078924  0.54528967    -0.73100
Al143      Al  0.57724293  0.12114100  0.50426080     1.90100
O144        O  0.66885765  0.10919536  0.47349197    -0.71000
O145        O  0.74582264  0.23358112  0.53435486    -0.70800
O146        O  0.72839275  0.21195852  0.46258666    -0.76500
O147        O  0.69551136  0.26620270  0.54772598    -0.74700
O148        O  0.64419670  0.17940293  0.50469805    -1.10800
O149        O  0.59387204  0.22807756  0.53392309    -0.70000
C150        C  0.56342632  0.18790818  0.55240878     1.00700
C151        C  0.62643393  0.08680462  0.45485547     0.97100
Al152      Al  0.70089264  0.17202125  0.50405515     1.55600
O153        O  0.54675665  0.15088837  0.47447236    -0.74600
C154        C  0.73625412  0.26344618  0.55327070     1.01300
C155        C  0.63446081  0.08975873  0.55151557     0.96200
O156        O  0.59323295  0.07850987  0.53368769    -0.79900
C157        C  0.06295854  0.45629809  0.32512802     0.82600
N158        N  0.09901791  0.46711343  0.64275407    -0.75700
C159        C  0.15207598  0.48606504  0.63851791     0.85100
N160        N  0.17046463  0.49765406  0.33089197    -0.75600
C161        C  0.13963222  0.48122429  0.36014892     0.85200
N162        N  0.08583196  0.46030198  0.35729926    -0.77400
C163        C  0.52107950  0.78122647  0.34332187     0.82600
N164        N  0.50241175  0.74978497  0.37216246    -0.75700
C165        C  0.47280369  0.69528567  0.36828840     0.85100
N166        N  0.46118186  0.67205632  0.33557785    -0.75600
C167        C  0.47599218  0.69402301  0.63171397     0.85200
N168        N  0.50542757  0.74825185  0.62820732    -0.77400
C169        C  0.38040605  0.32135877  0.32349953     0.82600
N170        N  0.36788491  0.33226413  0.35596106    -0.75700
C171        C  0.34411300  0.36126960  0.35885142     0.85100
N172        N  0.33373866  0.38008919  0.32948334    -0.75600
C173        C  0.35227385  0.36965460  0.63266246     0.85200
N174        N  0.37495809  0.33981699  0.62964382    -0.77400
O175        O  0.28316906  0.40615608  0.46693652    -0.79400
C176        C  0.39832383  0.59636850  0.54635775     1.00000
O177        O  0.40036835  0.55528307  0.53989673    -0.68500
O178        O  0.35977804  0.45338168  0.52638143    -0.72100
Al179      Al  0.37890089  0.51376923  0.49749937     1.49000
C180        C  0.31928224  0.42497106  0.54529864     0.95200
O181        O  0.21274752  0.45656426  0.52661072    -0.78300
O182        O  0.24483579  0.53159235  0.46818493    -0.71900
Al183      Al  0.25452347  0.43886543  0.49680037     1.90100
O184        O  0.26792316  0.54253303  0.53972577    -0.71000
O185        O  0.34806502  0.59014191  0.45616894    -0.70800
O186        O  0.36995494  0.60735169  0.52767073    -0.76500
O187        O  0.41286823  0.57643081  0.46872241    -0.74700
O188        O  0.31383123  0.50518390  0.49730705    -1.10800
O189        O  0.36496260  0.47310103  0.45526808    -0.70000
C190        C  0.32535502  0.42633602  0.44870705     1.00700
C191        C  0.22635158  0.49759996  0.54591183     0.97100
Al192      Al  0.30810708  0.56294472  0.49786201     1.55600
O193        O  0.27479216  0.41994687  0.53881311    -0.74600
C194        C  0.39402703  0.59832222  0.45045815     1.01300
C195        C  0.22143260  0.48918204  0.44911458     0.96200
O196        O  0.22734230  0.45046263  0.45485718    -0.79900
C197        C  0.33491988  0.38360229  0.60158679    -0.10900
C198        C  0.32506089  0.39963961  0.57542692    -0.12400
C199        C  0.33431174  0.37671908  0.39285002    -0.10900
C200        C  0.32844144  0.39621360  0.41946761    -0.12400
C201        C  0.42828641  0.63106060  0.57577344    -0.10900
C202        C  0.45126130  0.65964237  0.60119842    -0.12400
C203        C  0.42550523  0.63336854  0.42267814    -0.10900
C204        C  0.44918880  0.66225647  0.39841978    -0.12400
C205        C  0.18843230  0.48554862  0.41983209    -0.10900
C206        C  0.16398361  0.48332116  0.39355920    -0.12400
C207        C  0.19512303  0.49275983  0.57629927    -0.10900
C208        C  0.17338516  0.48961020  0.60391807    -0.12400
C209        C  0.40861821  0.29234478  0.31929666    -0.14000
C210        C  0.42388822  0.27524822  0.34683728    -0.29200
H211        H  0.42328691  0.28498155  0.62758067     0.15000
H212        H  0.41388401  0.28100290  0.37349693     0.15600
C213        C  0.54046367  0.19576794  0.42626684    -0.10900
C214        C  0.52119439  0.20223598  0.40023389    -0.12400
C215        C  0.53622324  0.19485507  0.58156493    -0.10900
C216        C  0.51983049  0.20501746  0.60789640    -0.12400
C217        C  0.56420445  0.87361194  0.32079632    -0.14000
C218        C  0.54982773  0.84035367  0.34816082    -0.29200
H219        H  0.55704688  0.85734989  0.29393550     0.15000
H220        H  0.55930349  0.85442348  0.62561238     0.15600
C221        C  0.62727823  0.03161011  0.60596200    -0.10900
C222        C  0.62955746  0.05588729  0.58000201    -0.12400
C223        C  0.61831390  0.03240942  0.39637287    -0.10900
C224        C  0.62236820  0.05542096  0.42406021    -0.12400
C225        C  0.97084032  0.41237759  0.34837877    -0.14000
C226        C  0.00421831  0.43100129  0.32085939    -0.29200
H227        H  0.98722842  0.41768381  0.37492968     0.15000
H228        H  0.00664535  0.43349636  0.70815034     0.15600
C229        C  0.77270081  0.29488064  0.58157549    -0.10900
C230        C  0.80327849  0.31930047  0.60582706    -0.12400
C231        C  0.79617519  0.31001125  0.40251192    -0.10900
C232        C  0.77004637  0.28791708  0.42813913    -0.12400
C233        C  0.92671155  0.39415916  0.65958304     0.82600
N234        N  0.90598534  0.38403874  0.69267403    -0.75700
C235        C  0.85189123  0.35462678  0.69713979     0.85100
N236        N  0.82229543  0.33641228  0.00740043    -0.75600
C237        C  0.85279455  0.35301332  0.97798912     0.85200
N238        N  0.90721341  0.38085209  0.98088504    -0.77400
C239        C  0.60244882  0.93438166  0.67486453     0.82600
N240        N  0.62055629  0.96752823  0.70389233    -0.75700
C241        C  0.64173008  0.02114246  0.70073000     0.85100
N242        N  0.64420498  0.04176894  0.66860829    -0.75600
C243        C  0.64067202  0.03132323  0.96862947     0.85200
N244        N  0.61962865  0.97761326  0.96532265    -0.77400
C245        C  0.47347441  0.26095509  0.67687451     0.82600
N246        N  0.49594552  0.25389694  0.96235639    -0.75700
C247        C  0.52591650  0.23182392  0.96692516     0.85100
N248        N  0.53145142  0.21352330  0.67094289    -0.75600
C249        C  0.52478381  0.23027616  0.70299195     0.85200
N250        N  0.49606374  0.25409341  0.70592480    -0.77400
O251        O  0.59653534  0.16868328  0.87597881    -0.79400
C252        C  0.77539104  0.29037156  0.78837957     1.00000
O253        O  0.75406455  0.30945775  0.80763425    -0.68500
O254        O  0.65121804  0.26076831  0.79379766    -0.72100
Al255      Al  0.69069058  0.27448047  0.83620210     1.49000
C256        C  0.60489254  0.22067616  0.78701991     0.95200
O257        O  0.63046111  0.12469792  0.79134072    -0.78300
O258        O  0.71983288  0.16428197  0.87683819    -0.73100
Al259      Al  0.61717240  0.15004657  0.83368516     1.90100
O260        O  0.71073355  0.14137497  0.80510965    -0.71000
O261        O  0.78431530  0.26662086  0.86546224    -0.70800
O262        O  0.76811087  0.24475550  0.79383752    -0.76500
O263        O  0.73071748  0.29517873  0.87886760    -0.74700
O264        O  0.68291932  0.20976416  0.83500676    -1.10800
O265        O  0.62912880  0.25390435  0.86491161    -0.70000
C266        C  0.59994528  0.21252271  0.88283922     1.00700
C267        C  0.66900619  0.11842003  0.78575320     0.97100
Al268      Al  0.74095699  0.20470294  0.83524990     1.55600
O269        O  0.58473638  0.17849892  0.80488339    -0.74600
C270        C  0.77170459  0.29327568  0.88519228     1.01300
C271        C  0.67484214  0.12218904  0.88212256     0.96200
O272        O  0.63479529  0.10827910  0.86226165    -0.79900
C273        C  0.07869797  0.46200921  0.67574341     0.82600
N274        N  0.11128647  0.47169770  0.96193289    -0.75700
C275        C  0.16544952  0.49501865  0.96440996     0.85100
N276        N  0.18486275  0.49954057  0.66719363    -0.75600
C277        C  0.16477530  0.49454679  0.70009101     0.85200
N278        N  0.11173991  0.47556909  0.70435498    -0.77400
C279        C  0.52658051  0.78136167  0.65710028     0.82600
N280        N  0.51766364  0.75975829  0.68979480    -0.75700
C281        C  0.48820636  0.70533681  0.69331145     0.85100
N282        N  0.46710444  0.67257181  0.66425212    -0.75600
C283        C  0.49415297  0.71647058  0.97344103     0.85200
N284        N  0.52073998  0.77105479  0.97733985    -0.77400
C285        C  0.39512123  0.32963306  0.65857886     0.82600
N286        N  0.39285784  0.35004072  0.69073430    -0.75700
C287        C  0.37023120  0.38008912  0.69375560     0.85100
N288        N  0.35024027  0.39008272  0.66464840    -0.75600
C289        C  0.37358424  0.38526256  0.96884746     0.85200
N290        N  0.39594517  0.35513440  0.97259457    -0.77400
O291        O  0.31741480  0.44820647  0.78963584    -0.79400
C292        C  0.43090919  0.62982911  0.88229066     1.00000
O293        O  0.45154383  0.60911233  0.86388540    -0.68500
O294        O  0.40751174  0.50586607  0.87469612    -0.72100
Al295      Al  0.41989053  0.54590830  0.83319541     1.49000
C296        C  0.36879878  0.45862613  0.88010456     0.95200
O297        O  0.26782635  0.47757526  0.87367923    -0.78300
O298        O  0.30353945  0.56726988  0.79090156    -0.71900
Al299      Al  0.29603618  0.46682563  0.83174951     1.90100
O300        O  0.28159722  0.55712733  0.86221402    -0.71000
O301        O  0.40525395  0.63575744  0.80431560    -0.70800
O302        O  0.38448088  0.61983571  0.87553662    -0.76500
O303        O  0.43979885  0.58698704  0.79165533    -0.74700
O304        O  0.35352206  0.53431401  0.83276954    -1.10800
O305        O  0.40317766  0.48538844  0.80259554    -0.70000
C306        C  0.36241020  0.45426626  0.78352501     1.00700
C307        C  0.25957518  0.51483918  0.88009408     0.97100
Al308      Al  0.34455490  0.59018394  0.83324106     1.55600
O309        O  0.32682253  0.43695040  0.86101463    -0.74600
C310        C  0.43451622  0.62594420  0.78536647     1.01300
C311        C  0.26276958  0.52132151  0.78421516     0.96200
O312        O  0.25208413  0.48118829  0.80231123    -0.79900
C313        C  0.37304462  0.40704548  0.93524508    -0.10900
C314        C  0.37179147  0.42928274  0.90908228    -0.12400
C315        C  0.36934880  0.40354574  0.72728795    -0.10900
C316        C  0.36729065  0.42580716  0.75386675    -0.12400
C317        C  0.46004728  0.66468261  0.91201523    -0.10900
C318        C  0.47890304  0.69087043  0.93901375    -0.12400
C319        C  0.46008181  0.65839124  0.75509916    -0.10900
C320        C  0.47586824  0.68202432  0.72771311    -0.12400
C321        C  0.22793710  0.51418284  0.75528520    -0.10900
C322        C  0.19900298  0.50637689  0.73033540    -0.12400
C323        C  0.22463244  0.50906531  0.90843230    -0.10900
C324        C  0.19659759  0.50316545  0.93333778    -0.12400
C325        C  0.42141681  0.29870882  0.65408718    -0.14000
C326        C  0.44406159  0.28877351  0.68120741    -0.29200
H327        H  0.42870340  0.29743360  0.03782344     0.15000
H328        H  0.44212793  0.30255456  0.70768592     0.15600
C329        C  0.57453571  0.22293337  0.75834409    -0.10900
C330        C  0.55067288  0.22553834  0.73343505    -0.12400
C331        C  0.57070558  0.21585788  0.91186813    -0.10900
C332        C  0.54880682  0.22128756  0.93695787    -0.12400
C333        C  0.57719632  0.87584666  0.67946641    -0.14000
C334        C  0.55622731  0.84021538  0.65230917    -0.29200
H335        H  0.57422144  0.86168076  0.70616608     0.15000
H336        H  0.56210016  0.86859632  0.04260728     0.15600
C337        C  0.65784994  0.06363649  0.93789890    -0.10900
C338        C  0.66804521  0.09017618  0.91193880    -0.12400
C339        C  0.65664804  0.05525303  0.73158649    -0.10900
C340        C  0.66477078  0.08418770  0.75687271    -0.12400
C341        C  0.98533942  0.42284071  0.65410525    -0.14000
C342        C  0.02073030  0.43910143  0.68112083    -0.29200
H343        H  0.99939481  0.42825687  0.62707593     0.15000
H344        H  0.00527366  0.42585031  0.96197776     0.15600
C345        C  0.80350563  0.32004694  0.91617709    -0.10900
C346        C  0.82730005  0.33755257  0.94387528    -0.12400
C347        C  0.82985455  0.33949556  0.73172979    -0.10900
C348        C  0.80712924  0.32020340  0.75893593    -0.12400
loop_ 
_geom_bond_atom_site_label_1 
_geom_bond_atom_site_label_2 
_geom_bond_distance 
_geom_bond_site_symmetry_2 
_ccdc_geom_bond_type 
C1            N2   1.360       .  A
C1          N238   1.359   1_554  A
C1          C109   1.476       .  S
N2            C3   1.358       .  A
C3          N236   1.356       .  A
C3          C115   1.435       .  S
N4            C5   1.356       .  A
N4          C119   1.355       .  A
C5            N6   1.360       .  A
C5          C114   1.438       .  S
N6          C117   1.364       .  A
C7            N8   1.364   1_556  A
C7          N244   1.355       .  A
C7          C101   1.474       .  S
N8            C9   1.360   1_565  A
C9           N10   1.356       .  A
C9          C107   1.438       .  S
N10         C243   1.355   1_554  A
C11          N12   1.355   1_545  A
C11         N126   1.356       .  A
C11         C105   1.434       .  S
N12         C123   1.358       .  A
C13          N18   1.364   1_556  A
C13         N246   1.355       .  A
C13          C94   1.476       .  S
N14          C15   1.359       .  A
N14         C129   1.363       .  A
C15         N132   1.357       .  A
C15         C100   1.439       .  S
N16          C17   1.356   1_556  A
N16         C247   1.355       .  A
C17          N18   1.360       .  A
C17          C98   1.439       .  S
O19          C34   1.257       .  A
O19         Al27   1.890       .  S
C20         C116   1.434       .  S
C20          O30   1.257       .  A
C20          O21   1.263       .  A
O21         Al23   1.927       .  S
O22          C24   1.257       .  A
O22         Al23   1.891       .  S
Al23         O31   1.896       .  S
Al23         O33   1.924       .  S
Al23         O32   1.789       .  S
C24          C97   1.438       .  S
C24          O37   1.262       .  A
O25          C35   1.257       .  A
O25         Al27   1.895       .  S
O26          C39   1.257       .  A
O26         Al36   1.885       .  S
Al27         O40   1.925       .  S
Al27         O37   1.925       .  S
Al27         O32   1.790       .  S
O28          C35   1.261       .  A
O28         Al36   1.921       .  S
O29          C38   1.260       .  A
O29         Al36   1.919       .  S
O30         Al36   1.885       .  S
O31          C38   1.258       .  A
O32         Al36   1.789       .  S
O33          C34   1.262       .  A
C34          C99   1.438       .  S
C35         C108   1.438       .  S
C38         C113   1.437       .  S
C39         C106   1.433       .  S
C39          O40   1.263       .  A
C41          N46   1.360   1_556  A
C41         N274   1.359       .  A
C41         C110   1.475       .  S
N42          C43   1.355       .  A
N42         C157   1.357       .  A
C43         N160   1.355       .  A
C43          C92   1.429       .  S
N44          C45   1.355   1_556  A
N44         C275   1.355       .  A
C45          N46   1.356       .  A
C45          C90   1.431       .  S
C47          N48   1.355       .  A
C47         N284   1.364   1_554  A
C47         C102   1.475       .  S
N48          C49   1.353       .  A
C49          N50   1.354       .  A
C49          C88   1.428       .  S
N50         C283   1.355   1_554  A
C51          N52   1.357       .  A
C51         N166   1.354       .  A
C51          C86   1.432       .  S
N52         C163   1.361       .  A
C53          N54   1.355       .  A
C53         N290   1.364   1_554  A
C53          C93   1.475       .  S
N54          C55   1.353       .  A
C55          N56   1.355   1_554  A
C55          C83   1.429       .  S
N56         C289   1.356       .  A
C57          N58   1.354       .  A
C57         N172   1.354       .  A
C57          C81   1.430       .  S
N58         C169   1.356       .  A
O59          C74   1.256       .  A
O59         Al67   1.885       .  S
C60          C85   1.432       .  S
C60          O70   1.257       .  A
C60          O61   1.261       .  A
O61         Al63   1.922       .  S
O62          C64   1.256       .  A
O62         Al63   1.885       .  S
Al63         O71   1.884       .  S
Al63         O73   1.918       .  S
Al63         O72   1.785       .  S
C64          C82   1.429       .  S
C64          O77   1.261       .  A
O65          C75   1.257       .  A
O65         Al67   1.880       .  S
O66          C79   1.256       .  A
O66         Al76   1.889       .  S
Al67         O80   1.915       .  S
Al67         O77   1.919       .  S
Al67         O72   1.786       .  S
O68          C75   1.262       .  A
O68         Al76   1.922       .  S
O69          C78   1.261       .  A
O69         Al76   1.915       .  S
O70         Al76   1.884       .  S
O71          C78   1.256       .  A
O72         Al76   1.784       .  S
O73          C74   1.262       .  A
C74          C84   1.428       .  S
C75          C91   1.428       .  S
C78          C87   1.427       .  S
C79          C89   1.430       .  S
C79          O80   1.260       .  A
C81          C82   1.202       .  T
C83          C84   1.202       .  T
C85          C86   1.204       .  T
C87          C88   1.201       .  T
C89          C90   1.203       .  T
C91          C92   1.202       .  T
C93          C94   1.339   1_554  D
C93         H327   1.087       .  S
C94          H96   1.087       .  S
H95         C209   1.086       .  S
C97          C98   1.208       .  T
C99         C100   1.207       .  T
C101        C102   1.339   1_556  D
C101        H103   1.086       .  S
C102        H336   1.087       .  S
H104        C218   1.086       .  S
C105        C106   1.205       .  T
C107        C108   1.207       .  T
C109        C110   1.345   1_654  D
C109        H111   1.086   1_655  S
C110        H344   1.086       .  S
H112        C226   1.086   1_655  S
C113        C114   1.207       .  T
C115        C116   1.205       .  T
C117        N118   1.355       .  A
C117        C225   1.474       .  S
N118        C119   1.353       .  A
C119        C231   1.430       .  S
N120        C235   1.355       .  A
N120        C121   1.354       .  A
C121        N122   1.356       .  A
C121        C230   1.433       .  S
N122        C233   1.358       .  A
C123        N124   1.361       .  A
C123        C217   1.475       .  S
N124        C125   1.357   1_565  A
C125        N126   1.357       .  A
C125        C223   1.436       .  S
C127        N242   1.355       .  A
C127        N128   1.359   1_545  A
C127        C221   1.435       .  S
N128        C239   1.363       .  A
C129        N134   1.357       .  A
C129        C210   1.476       .  S
N130        C245   1.364       .  A
N130        C131   1.361       .  A
C131        N248   1.355       .  A
C131        C216   1.437       .  S
N132        C133   1.356       .  A
C133        N134   1.355       .  A
C133        C214   1.432       .  S
O135        C150   1.259       .  A
O135       Al143   1.900       .  S
C136        C232   1.429       .  S
C136        O146   1.255       .  A
C136        O137   1.259       .  A
O137       Al139   1.914       .  S
O138        C140   1.256       .  A
O138       Al139   1.881       .  S
Al139       O147   1.890       .  S
Al139       O149   1.913       .  S
Al139       O148   1.789       .  S
C140        C213   1.431       .  S
C140        O153   1.263       .  A
O141        C151   1.256       .  A
O141       Al143   1.890       .  S
O142        C155   1.257       .  A
O142       Al152   1.887       .  S
Al143       O156   1.924       .  S
Al143       O153   1.924       .  S
Al143       O148   1.789       .  S
O144        C151   1.261       .  A
O144       Al152   1.919       .  S
O145        C154   1.263       .  A
O145       Al152   1.921       .  S
O146       Al152   1.885       .  S
O147        C154   1.258       .  A
O148       Al152   1.788       .  S
O149        C150   1.259       .  A
C150        C215   1.436       .  S
C151        C224   1.435       .  S
C154        C229   1.432       .  S
C155        C222   1.435       .  S
C155        O156   1.262       .  A
C157        N162   1.363       .  A
C157        C226   1.476       .  S
N158        C273   1.361       .  A
N158        C159   1.356       .  A
C159        N276   1.356       .  A
C159        C208   1.434       .  S
N160        C161   1.355       .  A
C161        N162   1.358       .  A
C161        C206   1.437       .  S
C163        N164   1.358       .  A
C163        C218   1.475       .  S
N164        C165   1.356       .  A
C165        N166   1.354       .  A
C165        C204   1.431       .  S
C167        N282   1.356       .  A
C167        N168   1.354       .  A
C167        C202   1.432       .  S
N168        C279   1.356       .  A
C169        N170   1.363       .  A
C169        C209   1.475       .  S
N170        C171   1.359       .  A
C171        N172   1.355       .  A
C171        C199   1.436       .  S
C173        N288   1.356       .  A
C173        N174   1.355       .  A
C173        C197   1.432       .  S
N174        C285   1.357       .  A
O175        C190   1.263       .  A
O175       Al183   1.928       .  S
C176        C201   1.432       .  S
C176        O186   1.261       .  A
C176        O177   1.256       .  A
O177       Al179   1.887       .  S
O178        C180   1.260       .  A
O178       Al179   1.913       .  S
Al179       O187   1.919       .  S
Al179       O189   1.884       .  S
Al179       O188   1.788       .  S
C180        C198   1.431       .  S
C180        O193   1.257       .  A
O181        C191   1.262       .  A
O181       Al183   1.924       .  S
O182        C195   1.262       .  A
O182       Al192   1.922       .  S
Al183       O196   1.893       .  S
Al183       O193   1.892       .  S
Al183       O188   1.789       .  S
O184        C191   1.256       .  A
O184       Al192   1.884       .  S
O185        C194   1.257       .  A
O185       Al192   1.886       .  S
O186       Al192   1.920       .  S
O187        C194   1.261       .  A
O188       Al192   1.787       .  S
O189        C190   1.257       .  A
C190        C200   1.435       .  S
C191        C207   1.433       .  S
C194        C203   1.431       .  S
C195        C205   1.436       .  S
C195        O196   1.258       .  A
C197        C198   1.204       .  T
C199        C200   1.206       .  T
C201        C202   1.204       .  T
C203        C204   1.203       .  T
C205        C206   1.207       .  T
C207        C208   1.205       .  T
C209        C210   1.341       .  D
C210        H212   1.086       .  S
H211        C325   1.086       .  S
C213        C214   1.204       .  T
C215        C216   1.206       .  T
C217        C218   1.343       .  D
C217        H219   1.086       .  S
H220        C334   1.086       .  S
C221        C222   1.206       .  T
C223        C224   1.206       .  T
C225        C226   1.340   1_655  D
C225        H227   1.086       .  S
H228        C342   1.086       .  S
C229        C230   1.204       .  T
C231        C232   1.202       .  T
C233        N234   1.361       .  A
C233        C341   1.475       .  S
N234        C235   1.356       .  A
C235        C347   1.431       .  S
N236        C237   1.355   1_554  A
C237        N238   1.355       .  A
C237        C346   1.432       .  S
C239        N240   1.357       .  A
C239        C333   1.476       .  S
N240        C241   1.355   1_565  A
C241        N242   1.354       .  A
C241        C339   1.429       .  S
C243        N244   1.353   1_545  A
C243        C337   1.428       .  S
C245        N250   1.357       .  A
C245        C326   1.476       .  S
N246        C247   1.353       .  A
C247        C332   1.429       .  S
N248        C249   1.353       .  A
C249        N250   1.354       .  A
C249        C330   1.430       .  S
O251        C266   1.256       .  A
O251       Al259   1.884       .  S
C252        C348   1.431       .  S
C252        O262   1.257       .  A
C252        O253   1.262       .  A
O253       Al255   1.922       .  S
O254        C256   1.257       .  A
O254       Al255   1.887       .  S
Al255       O263   1.887       .  S
Al255       O265   1.917       .  S
Al255       O264   1.784       .  S
C256        C329   1.429       .  S
C256        O269   1.261       .  A
O257        C267   1.256       .  A
O257       Al259   1.881       .  S
O258        C271   1.257       .  A
O258       Al268   1.887       .  S
Al259       O272   1.913       .  S
Al259       O269   1.916       .  S
Al259       O264   1.785       .  S
O260        C267   1.261       .  A
O260       Al268   1.922       .  S
O261        C270   1.261       .  A
O261       Al268   1.917       .  S
O262       Al268   1.884       .  S
O263        C270   1.256       .  A
O264       Al268   1.786       .  S
O265        C266   1.261       .  A
C266        C331   1.428       .  S
C267        C340   1.429       .  S
C270        C345   1.430       .  S
C271        C338   1.427       .  S
C271        O272   1.261       .  A
C273        N278   1.358       .  A
C273        C342   1.474       .  S
N274        C275   1.357       .  A
C275        C324   1.434       .  S
N276        C277   1.355       .  A
C277        N278   1.356       .  A
C277        C322   1.433       .  S
C279        N280   1.363       .  A
C279        C334   1.475       .  S
N280        C281   1.359       .  A
C281        N282   1.357       .  A
C281        C320   1.438       .  S
C283        N284   1.360       .  A
C283        C318   1.437       .  S
C285        N286   1.363       .  A
C285        C325   1.477       .  S
N286        C287   1.359       .  A
C287        N288   1.357       .  A
C287        C315   1.439       .  S
C289        N290   1.360       .  A
C289        C313   1.439       .  S
O291        C306   1.257       .  A
O291       Al299   1.888       .  S
C292        C317   1.437       .  S
C292        O302   1.256       .  A
C292        O293   1.263       .  A
O293       Al295   1.930       .  S
O294        C296   1.259       .  A
O294       Al295   1.897       .  S
Al295       O303   1.895       .  S
Al295       O305   1.928       .  S
Al295       O304   1.789       .  S
C296        C314   1.438       .  S
C296        O309   1.261       .  A
O297        C307   1.257       .  A
O297       Al299   1.888       .  S
O298        C311   1.256       .  A
O298       Al308   1.888       .  S
Al299       O312   1.918       .  S
Al299       O309   1.921       .  S
Al299       O304   1.789       .  S
O300        C307   1.262       .  A
O300       Al308   1.921       .  S
O301        C310   1.261       .  A
O301       Al308   1.918       .  S
O302       Al308   1.885       .  S
O303        C310   1.258       .  A
O304       Al308   1.790       .  S
O305        C306   1.263       .  A
C306        C316   1.438       .  S
C307        C323   1.433       .  S
C310        C319   1.437       .  S
C311        C321   1.432       .  S
C311        O312   1.261       .  A
C313        C314   1.208       .  T
C315        C316   1.208       .  T
C317        C318   1.207       .  T
C319        C320   1.207       .  T
C321        C322   1.204       .  T
C323        C324   1.205       .  T
C325        C326   1.341       .  D
C326        H328   1.086       .  S
C329        C330   1.202       .  T
C331        C332   1.202       .  T
C333        C334   1.341       .  D
C333        H335   1.086       .  S
C337        C338   1.201       .  T
C339        C340   1.202       .  T
C341        C342   1.344   1_655  D
C341        H343   1.086       .  S
C345        C346   1.203       .  T
C347        C348   1.203       .  T
