geometry optimzed in LAMMPS
_audit_creation_date              2020-12-01 
_audit_creation_method            'lammps2cif' 
_symmetry_space_group_name_H-M    'P1' 
_symmetry_Int_Tables_number       1 
_symmetry_cell_setting            triclinic 
loop_ 
_symmetry_equiv_pos_as_xyz 
  x,y,z 
_cell_length_a                    27.97665521 
_cell_length_b                    28.071768050115384 
_cell_length_c                    28.058819174074735 
_cell_angle_alpha                 90.07811390947968 
_cell_angle_beta                  89.03038514179836 
_cell_angle_gamma                 89.87950220920705 
loop_ 
_atom_site_label 
_atom_site_type_symbol 
_atom_site_fract_x 
_atom_site_fract_y 
_atom_site_fract_z 
_atom_site_charge 
In1        In  0.13518796  0.50410712  0.15289094     1.36900
C2          C  0.18690280  0.42886038  0.17880714     0.79500
O3          O  0.12818730  0.47409446  0.07887649    -0.58900
O4          O  0.15134747  0.54565688  0.08617426    -0.49900
C5          C  0.04022598  0.51051211  0.16175071     0.72200
O6          O  0.06205273  0.47113747  0.16320217    -0.44700
C7          C  0.17527677  0.56987807  0.20769027     0.76900
O8          O  0.14900847  0.44092372  0.20072616    -0.56600
O9          O  0.18921096  0.56124713  0.16562222    -0.46700
O10         O  0.19765649  0.45474194  0.14377945    -0.53000
C11         C  0.14162778  0.51186628  0.05835329     0.87100
O12         O  0.06692486  0.54620957  0.15644764    -0.54900
O13         O  0.14090575  0.54452793  0.22213643    -0.58200
In14       In  0.81233773  0.49244338  0.14586719     1.36900
C15         C  0.76466582  0.56444455  0.18648391     0.79500
O16         O  0.81346955  0.53991477  0.08166245    -0.58900
O17         O  0.81713946  0.46535221  0.07017927    -0.49900
C18         C  0.90614321  0.48305327  0.16007565     0.72200
O19         O  0.88493773  0.52269331  0.16205983    -0.44700
C20         C  0.76066717  0.41941427  0.17869853     0.76900
O21         O  0.80177920  0.54699502  0.20470574    -0.56600
O22         O  0.75494296  0.43688385  0.13789359    -0.46700
O23         O  0.75165848  0.54422873  0.14882020    -0.53000
C24         C  0.81580801  0.50638044  0.05196841     0.87100
O25         O  0.87920966  0.44814567  0.15237264    -0.54900
O26         O  0.79222393  0.43978736  0.20294621    -0.58200
In27       In  0.82912866  0.50423637  0.82311827     1.36900
C28         C  0.79455163  0.57626328  0.77309461     0.79500
O29         O  0.89568787  0.54782133  0.82910278    -0.58900
O30         O  0.90234027  0.47705967  0.80283393    -0.49900
C31         C  0.82695740  0.48988844  0.91677949     0.72200
O32         O  0.81165787  0.52784142  0.89822260    -0.44700
C33         C  0.77511161  0.43454336  0.78949451     0.76900
O34         O  0.78494577  0.57085966  0.81690656    -0.56600
O35         O  0.81783222  0.44096202  0.77589394    -0.46700
O36         O  0.82164382  0.54491597  0.75515238    -0.53000
C37         C  0.92312438  0.51510811  0.81450026     0.87100
O38         O  0.84261527  0.45944106  0.88746311    -0.54900
O39         O  0.75991308  0.46393823  0.82017272    -0.58200
In40       In  0.15010527  0.49225876  0.82915313     1.36900
C41         C  0.20269299  0.42276863  0.78964510     0.79500
O42         O  0.08492980  0.45397321  0.80326935    -0.58900
O43         O  0.07709933  0.52583577  0.82528519    -0.49900
C44         C  0.14205880  0.48499128  0.92403740     0.72200
O45         O  0.14794770  0.52427367  0.90309043    -0.44700
C46         C  0.19719638  0.56915231  0.79776084     0.76900
O47         O  0.20942911  0.43815705  0.83118277    -0.56600
O48         O  0.16086546  0.55314998  0.77714946    -0.46700
O49         O  0.16960860  0.44351281  0.76781314    -0.53000
C50         C  0.05712817  0.48867050  0.81014459     0.87100
O51         O  0.13997839  0.44959581  0.89654751    -0.54900
O52         O  0.20966868  0.54546212  0.83349410    -0.58200
C53         C  0.31574902  0.73010002  0.25443469     0.82100
N54         N  0.29115970  0.75101553  0.29129931    -0.76200
C55         C  0.24886041  0.73189217  0.30678744     0.84600
N56         N  0.23129237  0.69260584  0.28499609    -0.76100
C57         C  0.25585873  0.67160838  0.24855568     0.84700
N58         N  0.29791959  0.69051956  0.23352929    -0.77800
In59       In  0.48817835  0.84743196  0.15965711     1.36900
C60         C  0.56118375  0.80928103  0.20603804     0.79500
O61         O  0.45849779  0.92117964  0.14865854    -0.58900
O62         O  0.53207617  0.91392339  0.16407139    -0.49900
C63         C  0.47788731  0.82946318  0.06644885     0.72200
O64         O  0.51763213  0.83962928  0.08439687    -0.44700
C65         C  0.41620883  0.81383131  0.21318368     0.76900
O66         O  0.54823014  0.79371669  0.16600125    -0.56600
O67         O  0.42842066  0.85701232  0.21424045    -0.46700
O68         O  0.53664175  0.84354011  0.22203027    -0.53000
C69         C  0.49803194  0.94156234  0.15496293     0.87100
O70         O  0.44398674  0.82656420  0.09634994    -0.54900
O71         O  0.44109113  0.78822506  0.18527740    -0.58200
In72       In  0.48670717  0.16880348  0.13177339     1.36900
C73         C  0.55738551  0.21901768  0.16938819     0.79500
O74         O  0.53259605  0.16462496  0.06577267    -0.58900
O75         O  0.45910492  0.18156838  0.05812384    -0.49900
C76         C  0.47634759  0.07479115  0.13658134     0.72200
O77         O  0.51455628  0.09543448  0.14798106    -0.44700
C78         C  0.41396745  0.20211966  0.18390327     0.76900
O79         O  0.54898442  0.17614756  0.18014652    -0.56600
O80         O  0.42333219  0.21760071  0.14255778    -0.46700
O81         O  0.52941242  0.23648834  0.13926609    -0.53000
C82         C  0.49895081  0.17351669  0.03790196     0.87100
O83         O  0.44374706  0.10218051  0.12277262    -0.54900
O84         O  0.44207701  0.17048270  0.19844251    -0.58200
In85       In  0.48493074  0.83617350  0.83565454     1.36900
C86         C  0.55811287  0.78756105  0.79665928     0.79500
O87         O  0.52865349  0.84720618  0.90126654    -0.58900
O88         O  0.45933682  0.81840352  0.91097418    -0.49900
C89         C  0.47364368  0.92977677  0.82896879     0.72200
O90         O  0.51247611  0.90913559  0.81836968    -0.44700
C91         C  0.41101775  0.80370891  0.78567580     0.76900
O92         O  0.54872663  0.82995577  0.78536751    -0.56600
O93         O  0.41999097  0.78878167  0.82704477    -0.46700
O94         O  0.52962183  0.76984401  0.82703389    -0.53000
C95         C  0.49728865  0.83239470  0.93024542     0.87100
O96         O  0.44069923  0.90259179  0.84331073    -0.54900
O97         O  0.44041595  0.83386382  0.76975943    -0.58200
In98       In  0.48699884  0.15645794  0.81050008     1.36900
C99         C  0.41617020  0.19109354  0.75900680     0.79500
O100        O  0.44146940  0.16741564  0.87621889    -0.58900
O101        O  0.51675338  0.16615364  0.88386544    -0.49900
C102        C  0.49681808  0.06248063  0.81165492     0.72200
O103        O  0.45661013  0.08271809  0.81440570    -0.44700
C104        C  0.55943739  0.19792697  0.76504585     0.76900
O105        O  0.43367009  0.15026076  0.75214493    -0.56600
O106        O  0.54332583  0.21377479  0.80429099    -0.46700
O107        O  0.43497798  0.21441645  0.79225335    -0.53000
C108        C  0.47624896  0.16957994  0.90399756     0.87100
O109        O  0.53190029  0.09026077  0.80798175    -0.54900
O110        O  0.53827397  0.16178528  0.74946821    -0.58200
C111        C  0.72031035  0.31271113  0.25473428     0.82100
N112        N  0.73745910  0.29180516  0.29460010    -0.76200
C113        C  0.71683426  0.25174844  0.31233147     0.84600
N114        N  0.67905481  0.23252584  0.28995442    -0.76100
C115        C  0.66158696  0.25270653  0.25002319     0.84700
N116        N  0.68225030  0.29301843  0.23219200    -0.77800
In117      In  0.15517543  0.83730743  0.48900896     1.36900
C118        C  0.18521115  0.78603668  0.56264341     0.79500
O119        O  0.08751204  0.84950247  0.53174304    -0.58900
O120        O  0.08149324  0.82041174  0.46228342    -0.49900
C121        C  0.16404195  0.93034719  0.47323715     0.72200
O122        O  0.17491332  0.91152271  0.51244617    -0.44700
C123        C  0.20896141  0.80105916  0.41863041     0.76900
O124        O  0.19854591  0.82835887  0.55522666    -0.56600
O125        O  0.16479029  0.79263724  0.42312599    -0.46700
O126        O  0.15712105  0.76972525  0.53200011    -0.53000
C127        C  0.06024716  0.83462879  0.49973938     0.87100
O128        O  0.14916447  0.90163218  0.44245404    -0.54900
O129        O  0.22585654  0.82695658  0.45089158    -0.58200
In130      In  0.83073183  0.84165115  0.48503021     1.36900
C131        C  0.79659591  0.78981410  0.41360854     0.79500
O132        O  0.89875960  0.84467392  0.44094660    -0.58900
O133        O  0.90429624  0.82903778  0.51447458    -0.49900
C134        C  0.82242037  0.93551517  0.49612022     0.72200
O135        O  0.81240636  0.91496330  0.45751379    -0.44700
C136        C  0.77781941  0.80781083  0.55729669     0.76900
O137        O  0.78617187  0.83327800  0.41926463    -0.56600
O138        O  0.82028536  0.79432581  0.54926866    -0.46700
O139        O  0.82390410  0.77299567  0.44464770    -0.53000
C140        C  0.92578562  0.83534783  0.47512377     0.87100
O141        O  0.83688812  0.90822050  0.52833574    -0.54900
O142        O  0.76223593  0.83748059  0.52774270    -0.58200
In143      In  0.15175284  0.15774805  0.47843391     1.36900
C144        C  0.18637529  0.21157844  0.40833118     0.79500
O145        O  0.08692241  0.14846081  0.43337790    -0.58900
O146        O  0.07730462  0.15702616  0.50816849    -0.49900
C147        C  0.17043037  0.06523672  0.48998696     0.72200
O148        O  0.16414007  0.08352895  0.44956539    -0.44700
C149        C  0.18267024  0.20931208  0.55095561     0.76900
O150        O  0.20646326  0.17320815  0.42047600    -0.56600
O151        O  0.13942928  0.20833278  0.53910638    -0.46700
O152        O  0.14930871  0.22202057  0.43203847    -0.53000
C153        C  0.05812620  0.15164900  0.46818359     0.87100
O154        O  0.16969740  0.09452756  0.52390286    -0.54900
O155        O  0.21033844  0.18369412  0.52565169    -0.58200
In156      In  0.83061782  0.16231227  0.48616824     1.36900
C157        C  0.79573779  0.21614678  0.55673143     0.79500
O158        O  0.89610766  0.15290900  0.52974608    -0.58900
O159        O  0.90462932  0.16022301  0.45473785    -0.49900
C160        C  0.81335087  0.06967840  0.47557682     0.72200
O161        O  0.81772707  0.08893687  0.51591240    -0.44700
C162        C  0.79638676  0.21122090  0.41395386     0.76900
O163        O  0.77693400  0.17694416  0.54529971    -0.56600
O164        O  0.83890609  0.21559547  0.42744354    -0.46700
O165        O  0.83172366  0.22761588  0.53192512    -0.53000
C166        C  0.92433677  0.15472006  0.49443639     0.87100
O167        O  0.81495633  0.09817185  0.44105686    -0.54900
O168        O  0.77132153  0.18200199  0.43769914    -0.58200
C169        C  0.24977711  0.32291053  0.70723572     0.82100
N170        N  0.28938879  0.30719849  0.72981744    -0.76200
C171        C  0.31392416  0.26872375  0.71327664     0.84600
N172        N  0.29879706  0.24584314  0.67361550    -0.76100
C173        C  0.25925519  0.26105600  0.65071323     0.84700
N174        N  0.23471463  0.29965646  0.66766289    -0.77800
C175        C  0.23597288  0.68304699  0.73145971     0.82100
N176        N  0.27280312  0.69958121  0.75782138    -0.76200
C177        C  0.29722945  0.73920157  0.74427400     0.84600
N178        N  0.28423171  0.76273186  0.70411988    -0.76100
C179        C  0.24729135  0.74672445  0.67759484     0.84700
N180        N  0.22330324  0.70680746  0.69142755    -0.77800
C181        C  0.73144410  0.32702890  0.71801858     0.82100
N182        N  0.69101357  0.31280080  0.74161239    -0.76200
C183        C  0.66654748  0.27410773  0.72637093     0.84600
N184        N  0.68277494  0.24968600  0.68754836    -0.76100
C185        C  0.72283813  0.26347495  0.66377086     0.84700
N186        N  0.74731476  0.30217030  0.67922378    -0.77800
C187        C  0.72673804  0.74647207  0.30488180     0.82100
N188        N  0.68770816  0.76165083  0.28112099    -0.76200
C189        C  0.66989081  0.73563089  0.24461988     0.84600
N190        N  0.69170164  0.69422756  0.23174830    -0.76100
C191        C  0.73086712  0.67852479  0.25525617     0.84700
N192        N  0.74834049  0.70484820  0.29174686    -0.77800
C193        C  0.72554848  0.68699217  0.73351085     0.82100
N194        N  0.68626297  0.71132103  0.74879967    -0.76200
C195        C  0.67078840  0.75027396  0.72477079     0.84600
N196        N  0.69539566  0.76511677  0.68524942    -0.76100
C197        C  0.73494399  0.74087044  0.66963847     0.84700
N198        N  0.74982290  0.70197916  0.69397771    -0.77800
C199        C  0.25414266  0.25899235  0.29884591     0.82100
N200        N  0.22707002  0.29670158  0.28528786    -0.76200
C201        C  0.23794680  0.32095710  0.24478852     0.84600
N202        N  0.27621528  0.30716464  0.21747838    -0.76100
C203        C  0.30350425  0.26953856  0.23080116     0.84700
N204        N  0.29220126  0.24556202  0.27148796    -0.77800
C205        C  0.73969013  0.23479091  0.62268290    -0.14500
C206        C  0.77818947  0.24645914  0.59621710    -0.29700
H207        H  0.71994037  0.20259329  0.61433427     0.14500
H208        H  0.79795975  0.27876408  0.60400147     0.15100
C209        C  0.97623137  0.15165903  0.49987484    -0.14500
C210        C  0.00618328  0.15049065  0.46216625    -0.29700
H211        H  0.99010896  0.15137060  0.53582915     0.14500
H212        H  0.99238952  0.14997751  0.42618059     0.15100
C213        C  0.19884931  0.23824740  0.59149148    -0.14500
C214        C  0.24327392  0.23445127  0.60842116    -0.29700
H215        H  0.17309316  0.26189848  0.60873951     0.14500
H216        H  0.26814148  0.20916607  0.59222226     0.15100
C217        C  0.24116824  0.23080748  0.34143344    -0.14500
C218        C  0.20328055  0.24208157  0.36907583    -0.29700
H219        H  0.26195678  0.19903144  0.34901473     0.14500
H220        H  0.18244951  0.27385504  0.36164200     0.15100
C221        C  0.81862955  0.98727041  0.50383045    -0.14500
C222        C  0.80928153  0.01783787  0.46851665    -0.29700
H223        H  0.82668142  0.00074619  0.53911393     0.14500
H224        H  0.80281966  0.00462034  0.43279214     0.15100
C225        C  0.74844844  0.79136396  0.59824467    -0.14500
C226        C  0.76321315  0.75681009  0.62758815    -0.29700
H227        H  0.71392381  0.80831015  0.60436065     0.14500
H228        H  0.79728859  0.73925864  0.62047364     0.15100
C229        C  0.77898267  0.76043052  0.37394036    -0.14500
C230        C  0.74513521  0.77591524  0.34429548    -0.29700
H231        H  0.79374931  0.72481790  0.36967904     0.14500
H232        H  0.72949376  0.81104005  0.34971279     0.15100
C233        C  0.16685454  0.98183469  0.46364896    -0.14500
C234        C  0.17588847  0.01365564  0.49799015    -0.29700
H235        H  0.15789472  0.99401197  0.42814750     0.14500
H236        H  0.18329174  0.00158041  0.53389669     0.15100
C237        C  0.97821845  0.83234152  0.46897570    -0.14500
C238        C  0.00777483  0.83449319  0.50611283    -0.29700
H239        H  0.99289399  0.83067094  0.43288327     0.14500
H240        H  0.99316428  0.83895148  0.54199801     0.15100
C241        C  0.23337679  0.77350745  0.63454474    -0.14500
C242        C  0.20021453  0.75773583  0.60417119    -0.29700
H243        H  0.25091587  0.80736911  0.62776210     0.14500
H244        H  0.18324516  0.72342678  0.60997715     0.15100
C245        C  0.77795707  0.23797702  0.37318366    -0.14500
C246        C  0.73516176  0.22793002  0.35496658    -0.29700
H247        H  0.80067912  0.26494317  0.35686038     0.14500
H248        H  0.71358208  0.19960574  0.37052705     0.15100
C249        C  0.60019198  0.21840804  0.73876212    -0.14500
C250        C  0.62381183  0.25736375  0.75297717    -0.29700
H251        H  0.61159041  0.19964108  0.70662760     0.14500
H252        H  0.61238212  0.27634286  0.78498390     0.15100
C253        C  0.37656699  0.20934159  0.73034738    -0.15700
C254        C  0.35557702  0.25142124  0.73980305    -0.29700
H255        H  0.36360883  0.18693293  0.70175518     0.14500
H256        H  0.36807147  0.27307065  0.76920247     0.15100
C257        C  0.46681015  0.98152136  0.82515766    -0.14500
C258        C  0.50298751  0.01057049  0.81311679    -0.29700
H259        H  0.43164243  0.99605997  0.83353296     0.14500
H260        H  0.53842892  0.99614346  0.80587341     0.15100
C261        C  0.59940692  0.76052402  0.77716532    -0.14500
C262        C  0.62835545  0.77729551  0.74220074    -0.29700
H263        H  0.60622194  0.72572152  0.79251195     0.14500
H264        H  0.62079487  0.81156746  0.72602016     0.15100
C265        C  0.36951205  0.78828289  0.75752818    -0.14500
C266        C  0.33807166  0.75541347  0.77314503    -0.29700
H267        H  0.36504897  0.80439745  0.72271353     0.14500
H268        H  0.34326631  0.73867014  0.80755285     0.15100
C269        C  0.46934283  0.17475516  0.95588635    -0.14500
C270        C  0.50616709  0.17306139  0.98583462    -0.29700
H271        H  0.43303067  0.17792891  0.96981491     0.14500
H272        H  0.54236986  0.16864661  0.97195654     0.15100
C273        C  0.62159521  0.22846281  0.22662169    -0.14500
C274        C  0.59686979  0.24650285  0.19029584    -0.29700
H275        H  0.61162900  0.19380613  0.24084680     0.14500
H276        H  0.60515383  0.28163939  0.17631226     0.15100
C277        C  0.34450531  0.25438468  0.20056096    -0.14500
C278        C  0.37335288  0.21855856  0.21352172    -0.29700
H279        H  0.35108770  0.27294960  0.16713812     0.14500
H280        H  0.36722325  0.20033425  0.24720742     0.15100
C281        C  0.50474606  0.99344531  0.15210133    -0.14500
C282        C  0.46951630  0.02288029  0.13917463    -0.29700
H283        H  0.53970636  0.00766471  0.16049813     0.14500
H284        H  0.43473286  0.00862831  0.13014296     0.15100
C285        C  0.47061603  0.82301845  0.01464618    -0.14500
C286        C  0.50517952  0.83285828  0.98229948    -0.29700
H287        H  0.43529970  0.81285153  0.00282858     0.14500
H288        H  0.54005275  0.84421843  0.99433694     0.15100
C289        C  0.60208509  0.79042236  0.23260106    -0.14500
C290        C  0.62774172  0.75240006  0.21816086    -0.29700
H291        H  0.61146611  0.80898909  0.26510903     0.14500
H292        H  0.61770691  0.73321457  0.18620875     0.15100
C293        C  0.22045064  0.75319792  0.34612234    -0.14500
C294        C  0.23872908  0.78261077  0.37875038    -0.29700
H295        H  0.18332022  0.74220038  0.34960566     0.14500
H296        H  0.27618754  0.79266430  0.37670882     0.15100
C297        C  0.36055479  0.74995337  0.23452147    -0.14500
C298        C  0.37513192  0.79496485  0.24104652    -0.29700
H299        H  0.38039278  0.72722293  0.20968709     0.14500
H300        H  0.35498492  0.81890523  0.26438003     0.15100
C301        C  0.20983734  0.63930084  0.74555876    -0.14500
C302        C  0.22329972  0.61231714  0.78257435    -0.29700
H303        H  0.17904388  0.62895843  0.72490966     0.14500
H304        H  0.25423813  0.62238399  0.80311625     0.15100
C305        C  0.23125780  0.38329568  0.76913577    -0.14500
C306        C  0.22224155  0.36405240  0.72623801    -0.29700
H307        H  0.25967932  0.36888062  0.79076392     0.14500
H308        H  0.19304100  0.37783123  0.70521914     0.15100
C309        C  0.97540782  0.52098810  0.81342312    -0.14500
C310        C  0.00522139  0.48483958  0.80296119    -0.29700
H311        H  0.98967734  0.55502514  0.82488478     0.14500
H312        H  0.99102431  0.45057881  0.79205634     0.15100
C313        C  0.77646830  0.61617050  0.74460492    -0.14500
C314        C  0.74240048  0.64582185  0.76123543    -0.29700
H315        H  0.79148511  0.62099285  0.70897086     0.14500
H316        H  0.72627988  0.63972389  0.79621317     0.15100
C317        C  0.74519727  0.39548992  0.77169065    -0.14500
C318        C  0.75961037  0.36785177  0.73505496    -0.29700
H319        H  0.71084132  0.38935005  0.78923019     0.14500
H320        H  0.79356452  0.37506850  0.71710868     0.15100
C321        C  0.81612749  0.51523811  0.00026029    -0.14500
C322        C  0.82681566  0.48098947  0.96850487    -0.29700
H323        H  0.80795365  0.55103837  0.98811936     0.14500
H324        H  0.83663686  0.44562526  0.98071191     0.15100
C325        C  0.73843160  0.60596686  0.20582791    -0.14500
C326        C  0.75549498  0.63396961  0.24049267    -0.29700
H327        H  0.70515060  0.61525591  0.18874236     0.14500
H328        H  0.78901213  0.62490270  0.25727908     0.15100
C329        C  0.73314062  0.37789963  0.19600377    -0.14500
C330        C  0.74447617  0.35597637  0.23676529    -0.29700
H331        H  0.70454189  0.36427228  0.17417680     0.14500
H332        H  0.77387723  0.36958253  0.25759875     0.15100
C333        C  0.98771587  0.51533446  0.16462408    -0.14500
C334        C  0.95838341  0.47754779  0.16444009    -0.29700
H335        H  0.97283028  0.55110287  0.16383562     0.14500
H336        H  0.97317588  0.44173332  0.16398086     0.15100
C337        C  0.14574861  0.51680114  0.00604946    -0.14500
C338        C  0.13791800  0.48013945  0.97635367    -0.29700
H339        H  0.15581704  0.55134674  0.99171631     0.14500
H340        H  0.12883712  0.44535147  0.99073255     0.15100
C341        C  0.19652579  0.60743702  0.23723790    -0.14500
C342        C  0.23619736  0.63048628  0.22280799    -0.29700
H343        H  0.17863880  0.61700401  0.27057408     0.14500
H344        H  0.25444253  0.61961235  0.19003941     0.15100
C345        C  0.21700041  0.38813331  0.19233065    -0.14500
C346        C  0.20745112  0.36146591  0.23092248    -0.29700
H347        H  0.24822587  0.38040279  0.17005326     0.14500
H348        H  0.17642931  0.36972618  0.25331908     0.15100
loop_ 
_geom_bond_atom_site_label_1 
_geom_bond_atom_site_label_2 
_geom_bond_distance 
_geom_bond_site_symmetry_2 
_ccdc_geom_bond_type 
In1           O3   2.252       .  S
In1           O4   2.247       .  S
In1          O12   2.245       .  S
In1           O6   2.262       .  S
In1           O8   2.262       .  S
In1           O9   2.239       .  S
In1          O10   2.239       .  S
In1          O13   2.257       .  S
C2            O8   1.262       .  A
C2           O10   1.256       .  A
C2          C345   1.472       .  S
O3           C11   1.262       .  A
O4           C11   1.261       .  A
C5           O12   1.259       .  A
C5            O6   1.263       .  A
C5          C333   1.476   1_455  S
C7            O9   1.260       .  A
C7           O13   1.259       .  A
C7          C341   1.473       .  S
C11         C337   1.477       .  S
In14         O16   2.242       .  S
In14         O17   2.257       .  S
In14         O25   2.254       .  S
In14         O19   2.256       .  S
In14         O21   2.266       .  S
In14         O22   2.254       .  S
In14         O23   2.233       .  S
In14         O26   2.246       .  S
C15          O21   1.263       .  A
C15          O23   1.258       .  A
C15         C325   1.474       .  S
O16          C24   1.257       .  A
O17          C24   1.261       .  A
C18          O25   1.258       .  A
C18          O19   1.261       .  A
C18         C334   1.476       .  S
C20          O22   1.259       .  A
C20          O26   1.261       .  A
C20         C329   1.476       .  S
C24         C321   1.472       .  S
In27         O29   2.239       .  S
In27         O30   2.248       .  S
In27         O38   2.238       .  S
In27         O32   2.254       .  S
In27         O34   2.248       .  S
In27         O35   2.241       .  S
In27         O36   2.237       .  S
In27         O39   2.247       .  S
C28          O34   1.263       .  A
C28          O36   1.259       .  A
C28         C313   1.471       .  S
O29          C37   1.259       .  A
O30          C37   1.263       .  A
C31          O38   1.258       .  A
C31          O32   1.264       .  A
C31         C322   1.473       .  S
C33          O35   1.262       .  A
C33          O39   1.260       .  A
C33         C317   1.473       .  S
C37         C309   1.472       .  S
In40         O42   2.249       .  S
In40         O43   2.252       .  S
In40         O51   2.254       .  S
In40         O45   2.260       .  S
In40         O47   2.249       .  S
In40         O48   2.266       .  S
In40         O49   2.256       .  S
In40         O52   2.245       .  S
C41          O47   1.260       .  A
C41          O49   1.261       .  A
C41         C305   1.475       .  S
O42          C50   1.258       .  A
O43          C50   1.261       .  A
C44          O51   1.259       .  A
C44          O45   1.260       .  A
C44         C338   1.477       .  S
C46          O48   1.261       .  A
C46          O52   1.258       .  A
C46         C302   1.476       .  S
C50         C310   1.474       .  S
C53         C297   1.475       .  S
C53          N54   1.364       .  A
C53          N58   1.356       .  A
N54          C55   1.365       .  A
C55         C293   1.474       .  S
C55          N56   1.357       .  A
N56          C57   1.356       .  A
C57         C342   1.473       .  S
C57          N58   1.353       .  A
In59         O61   2.253       .  S
In59         O62   2.241       .  S
In59         O70   2.259       .  S
In59         O64   2.264       .  S
In59         O66   2.265       .  S
In59         O67   2.263       .  S
In59         O68   2.235       .  S
In59         O71   2.235       .  S
C60          O66   1.264       .  A
C60          O68   1.258       .  A
C60         C289   1.474       .  S
O61          C69   1.261       .  A
O62          C69   1.257       .  A
C63          O70   1.258       .  A
C63          O64   1.261       .  A
C63         C285   1.482       .  S
C65          O67   1.261       .  A
C65          O71   1.262       .  A
C65         C298   1.478       .  S
C69         C281   1.471       .  S
In72         O74   2.238       .  S
In72         O75   2.247       .  S
In72         O83   2.242       .  S
In72         O77   2.250       .  S
In72         O79   2.236       .  S
In72         O80   2.254       .  S
In72         O81   2.258       .  S
In72         O84   2.232       .  S
C73          O79   1.263       .  A
C73          O81   1.261       .  A
C73         C274   1.478       .  S
O74          C82   1.259       .  A
O75          C82   1.262       .  A
C76          O83   1.258       .  A
C76          O77   1.263       .  A
C76         C282   1.472       .  S
C78          O80   1.263       .  A
C78          O84   1.258       .  A
C78         C278   1.470       .  S
C82         C270   1.471   1_554  S
In85         O87   2.249       .  S
In85         O88   2.276       .  S
In85         O96   2.244       .  S
In85         O90   2.241       .  S
In85         O92   2.263       .  S
In85         O93   2.270       .  S
In85         O94   2.251       .  S
In85         O97   2.248       .  S
C86          O92   1.260       .  A
C86          O94   1.261       .  A
C86         C261   1.478       .  S
O87          C95   1.258       .  A
O88          C95   1.263       .  A
C89          O96   1.259       .  A
C89          O90   1.261       .  A
C89         C257   1.469       .  S
C91          O93   1.264       .  A
C91          O97   1.259       .  A
C91         C265   1.480       .  S
C95         C286   1.481       .  S
In98        O100   2.244       .  S
In98        O101   2.250       .  S
In98        O109   2.241       .  S
In98        O103   2.242       .  S
In98        O105   2.241       .  S
In98        O106   2.259       .  S
In98        O107   2.246       .  S
In98        O110   2.221       .  S
C99         O105   1.259       .  A
C99         O107   1.262       .  A
C99         C253   1.472       .  S
O100        C108   1.258       .  A
O101        C108   1.261       .  A
C102        O109   1.258       .  A
C102        O103   1.260       .  A
C102        C258   1.468       .  S
C104        O106   1.263       .  A
C104        O110   1.257       .  A
C104        C249   1.466       .  S
C108        C269   1.472       .  S
C111        C330   1.476       .  S
C111        N112   1.358       .  A
C111        N116   1.365       .  A
N112        C113   1.356       .  A
C113        C246   1.471       .  S
C113        N114   1.351       .  A
N114        C115   1.354       .  A
C115        C273   1.474       .  S
C115        N116   1.364       .  A
In117       O119   2.249       .  S
In117       O120   2.257       .  S
In117       O128   2.238       .  S
In117       O122   2.256       .  S
In117       O124   2.250       .  S
In117       O125   2.244       .  S
In117       O126   2.251       .  S
In117       O129   2.250       .  S
C118        O124   1.262       .  A
C118        O126   1.261       .  A
C118        C242   1.477       .  S
O119        C127   1.259       .  A
O120        C127   1.262       .  A
C121        O128   1.257       .  A
C121        O122   1.263       .  A
C121        C233   1.473       .  S
C123        O125   1.263       .  A
C123        O129   1.259       .  A
C123        C294   1.476       .  S
C127        C238   1.476       .  S
In130       O132   2.254       .  S
In130       O133   2.258       .  S
In130       O141   2.236       .  S
In130       O135   2.260       .  S
In130       O137   2.257       .  S
In130       O138   2.256       .  S
In130       O139   2.244       .  S
In130       O142   2.246       .  S
C131        O137   1.263       .  A
C131        O139   1.260       .  A
C131        C229   1.476       .  S
O132        C140   1.259       .  A
O133        C140   1.261       .  A
C134        O141   1.257       .  A
C134        O135   1.263       .  A
C134        C221   1.472       .  S
C136        O138   1.263       .  A
C136        O142   1.259       .  A
C136        C225   1.476       .  S
C140        C237   1.476       .  S
In143       O145   2.244       .  S
In143       O146   2.231       .  S
In143       O154   2.248       .  S
In143       O148   2.258       .  S
In143       O150   2.257       .  S
In143       O151   2.237       .  S
In143       O152   2.228       .  S
In143       O155   2.247       .  S
C144        O150   1.264       .  A
C144        O152   1.256       .  A
C144        C218   1.469       .  S
O145        C153   1.258       .  A
O146        C153   1.261       .  A
C147        O154   1.257       .  A
C147        O148   1.261       .  A
C147        C234   1.474       .  S
C149        O151   1.260       .  A
C149        O155   1.264       .  A
C149        C213   1.475       .  S
C153        C210   1.466       .  S
In156       O158   2.235       .  S
In156       O159   2.237       .  S
In156       O167   2.248       .  S
In156       O161   2.251       .  S
In156       O163   2.256       .  S
In156       O164   2.236       .  S
In156       O165   2.237       .  S
In156       O168   2.232       .  S
C157        O163   1.264       .  A
C157        O165   1.257       .  A
C157        C206   1.473       .  S
O158        C166   1.258       .  A
O159        C166   1.261       .  A
C160        O167   1.257       .  A
C160        O161   1.262       .  A
C160        C222   1.473       .  S
C162        O164   1.261       .  A
C162        O168   1.264       .  A
C162        C245   1.469       .  S
C166        C209   1.465       .  S
C169        C306   1.481       .  S
C169        N170   1.359       .  A
C169        N174   1.361       .  A
N170        C171   1.356       .  A
C171        C254   1.475       .  S
C171        N172   1.358       .  A
N172        C173   1.357       .  A
C173        C214   1.477       .  S
C173        N174   1.362       .  A
C175        C301   1.481       .  S
C175        N176   1.361       .  A
C175        N180   1.359       .  A
N176        C177   1.358       .  A
C177        C266   1.484       .  S
C177        N178   1.361       .  A
N178        C179   1.361       .  A
C179        C241   1.481       .  S
C179        N180   1.361       .  A
C181        C318   1.476       .  S
C181        N182   1.362       .  A
C181        N186   1.360       .  A
N182        C183   1.358       .  A
C183        C250   1.477       .  S
C183        N184   1.357       .  A
N184        C185   1.352       .  A
C185        C205   1.476       .  S
C185        N186   1.360       .  A
C187        C230   1.480       .  S
C187        N188   1.357       .  A
C187        N192   1.362       .  A
N188        C189   1.359       .  A
C189        C290   1.480       .  S
C189        N190   1.357       .  A
N190        C191   1.361       .  A
C191        C326   1.482       .  S
C191        N192   1.360       .  A
C193        C314   1.475       .  S
C193        N194   1.356       .  A
C193        N198   1.359       .  A
N194        C195   1.359       .  A
C195        C262   1.483       .  S
C195        N196   1.362       .  A
N196        C197   1.363       .  A
C197        C226   1.480       .  S
C197        N198   1.357       .  A
C199        C217   1.475       .  S
C199        N200   1.359       .  A
C199        N204   1.355       .  A
N200        C201   1.356       .  A
C201        C346   1.477       .  S
C201        N202   1.361       .  A
N202        C203   1.359       .  A
C203        C277   1.477       .  S
C203        N204   1.359       .  A
C205        C206   1.339       .  D
C205        H207   1.088       .  S
C206        H208   1.087       .  S
C209        C210   1.339   1_655  D
C209        H211   1.087       .  S
C210        H212   1.087   1_455  S
C213        C214   1.342       .  D
C213        H215   1.086       .  S
C214        H216   1.087       .  S
C217        C218   1.340       .  D
C217        H219   1.087       .  S
C218        H220   1.087       .  S
C221        C222   1.340   1_565  D
C221        H223   1.087   1_565  S
C222        H224   1.087       .  S
C225        C226   1.342       .  D
C225        H227   1.087       .  S
C226        H228   1.088       .  S
C229        C230   1.343       .  D
C229        H231   1.087       .  S
C230        H232   1.087       .  S
C233        C234   1.341   1_565  D
C233        H235   1.087       .  S
C234        H236   1.087       .  S
C237        C238   1.343   1_655  D
C237        H239   1.087       .  S
C238        H240   1.087   1_455  S
C241        C242   1.346       .  D
C241        H243   1.086       .  S
C242        H244   1.086       .  S
C245        C246   1.340       .  D
C245        H247   1.086       .  S
C246        H248   1.087       .  S
C249        C250   1.343       .  D
C249        H251   1.087       .  S
C250        H252   1.087       .  S
C253        C254   1.342       .  D
C253        H255   1.086       .  S
C254        H256   1.087       .  S
C257        C258   1.340   1_565  D
C257        H259   1.086       .  S
C258        H260   1.086   1_545  S
C261        C262   1.348       .  D
C261        H263   1.086       .  S
C262        H264   1.086       .  S
C265        C266   1.345       .  D
C265        H267   1.086       .  S
C266        H268   1.086       .  S
C269        C270   1.341       .  D
C269        H271   1.086       .  S
C270        H272   1.086       .  S
C273        C274   1.341       .  D
C273        H275   1.087       .  S
C274        H276   1.086       .  S
C277        C278   1.343       .  D
C277        H279   1.087       .  S
C278        H280   1.087       .  S
C281        C282   1.340   1_565  D
C281        H283   1.087   1_565  S
C282        H284   1.087       .  S
C285        C286   1.344   1_554  D
C285        H287   1.086       .  S
C286        H288   1.086       .  S
C289        C290   1.343       .  D
C289        H291   1.086       .  S
C290        H292   1.087       .  S
C293        C294   1.340       .  D
C293        H295   1.087       .  S
C294        H296   1.086       .  S
C297        C298   1.342       .  D
C297        H299   1.089       .  S
C298        H300   1.088       .  S
C301        C302   1.345       .  D
C301        H303   1.086       .  S
C302        H304   1.086       .  S
C305        C306   1.347       .  D
C305        H307   1.086       .  S
C306        H308   1.086       .  S
C309        C310   1.341   1_655  D
C309        H311   1.087       .  S
C310        H312   1.087   1_455  S
C313        C314   1.341       .  D
C313        H315   1.087       .  S
C314        H316   1.087       .  S
C317        C318   1.343       .  D
C317        H319   1.087       .  S
C318        H320   1.087       .  S
C321        C322   1.340   1_554  D
C321        H323   1.087   1_554  S
C322        H324   1.087       .  S
C325        C326   1.344       .  D
C325        H327   1.086       .  S
C326        H328   1.086       .  S
C329        C330   1.342       .  D
C329        H331   1.086       .  S
C330        H332   1.087       .  S
C333        C334   1.343       .  D
C333        H335   1.087       .  S
C334        H336   1.086       .  S
C337        C338   1.344   1_554  D
C337        H339   1.086   1_554  S
C338        H340   1.086       .  S
C341        C342   1.343       .  D
C341        H343   1.086       .  S
C342        H344   1.087       .  S
C345        C346   1.341       .  D
C345        H347   1.087       .  S
C346        H348   1.087       .  S
