geometry optimzed in LAMMPS
_audit_creation_date              2020-11-30 
_audit_creation_method            'lammps2cif' 
_symmetry_space_group_name_H-M    'P1' 
_symmetry_Int_Tables_number       1 
_symmetry_cell_setting            triclinic 
loop_ 
_symmetry_equiv_pos_as_xyz 
  x,y,z 
_cell_length_a                    24.929092003627396 
_cell_length_b                    24.638303775339445 
_cell_length_c                    19.39260638146587 
_cell_angle_alpha                 89.97799488035515 
_cell_angle_beta                  88.17467681930084 
_cell_angle_gamma                 90.74192991834961 
loop_ 
_atom_site_label 
_atom_site_type_symbol 
_atom_site_fract_x 
_atom_site_fract_y 
_atom_site_fract_z 
_atom_site_charge 
C1          C  0.50229039  0.50791399  0.99346873    -0.02030
N2          N  0.33183972  0.72624422  0.78132766    -0.26840
N3          N  0.38227780  0.74141343  0.76839328    -0.34690
C4          C  0.41519604  0.70480000  0.79448208     0.01500
C5          C  0.38494486  0.66430241  0.82654280     0.07530
C6          C  0.33189415  0.67908597  0.81727789    -0.05570
H7          H  0.45832885  0.71003291  0.79583630     0.08200
H8          H  0.29636061  0.65935723  0.83947102     0.09400
Cu9        Cu  0.40861032  0.81720858  0.73627624     0.44170
Cu10       Cu  0.26723082  0.77588570  0.75568813     0.41990
Cu11       Cu  0.31314901  0.91799757  0.75260456     0.43880
N12         N  0.43034693  0.89819067  0.73958083    -0.34220
N13         N  0.39415965  0.93628136  0.74884635    -0.28480
C14         C  0.41911071  0.98481840  0.75253918    -0.04580
C15         C  0.47382935  0.97661321  0.74565370     0.07640
C16         C  0.47958284  0.92117581  0.73759456     0.01440
H17         H  0.39888634  0.02309841  0.75958764     0.09090
H18         H  0.51667607  0.89908864  0.73171174     0.08170
N19         N  0.23759502  0.89214554  0.72592326    -0.35670
N20         N  0.22033741  0.84115406  0.72333863    -0.27850
C21         C  0.17343803  0.84004947  0.69000017    -0.03090
C22         C  0.16151302  0.89277274  0.67058939     0.05520
C23         C  0.20278313  0.92435219  0.69498496     0.03610
H24         H  0.15205573  0.80339385  0.67596977     0.08720
H25         H  0.20951871  0.96722716  0.68547655     0.07550
N26         N  0.65813133  0.27107197  0.78530287    -0.26840
N27         N  0.60762725  0.25410929  0.79199851    -0.34690
C28         C  0.57773081  0.29336684  0.82093819     0.01500
C29         C  0.61053973  0.33735693  0.83350267     0.07530
C30         C  0.66138050  0.32222547  0.81005089    -0.05570
H31         H  0.53542026  0.28932334  0.83449189     0.08200
H32         H  0.69816319  0.34578027  0.81314167     0.09400
Cu33       Cu  0.57986496  0.17714064  0.76958743     0.44170
Cu34       Cu  0.72010237  0.22101039  0.74807117     0.41990
Cu35       Cu  0.67705791  0.07797793  0.73505766     0.43880
N36         N  0.55968171  0.09654202  0.75607586    -0.34220
N37         N  0.59612394  0.05900185  0.74441904    -0.28480
C38         C  0.57139072  0.01043817  0.73877922    -0.04580
C39         C  0.51667788  0.01806845  0.74744417     0.07640
C40         C  0.51067970  0.07313941  0.75833470     0.01440
H41         H  0.59172135  0.97257850  0.72881602     0.09090
H42         H  0.47357363  0.09465528  0.76747575     0.08170
N43         N  0.75440696  0.10612199  0.71432994    -0.35670
N44         N  0.77039223  0.15757371  0.71572232    -0.27850
C45         C  0.82152358  0.16068273  0.69063441    -0.03090
C46         C  0.83832554  0.10863497  0.67433608     0.05520
C47         C  0.79463962  0.07544539  0.68939414     0.03610
H48         H  0.84397402  0.19810728  0.68220770     0.08720
H49         H  0.79119981  0.03244388  0.67878491     0.07550
N50         N  0.15999123  0.22727436  0.27431219    -0.26840
N51         N  0.10980717  0.23841479  0.25947548    -0.34690
C52         C  0.07697209  0.19917068  0.28444344     0.01500
C53         C  0.10725392  0.16135783  0.31721498     0.07530
C54         C  0.15980244  0.18047699  0.31061016    -0.05570
H55         H  0.03360554  0.20048160  0.28389987     0.08200
H56         H  0.19484430  0.16283959  0.33280145     0.09400
Cu57       Cu  0.08218876  0.31148326  0.22497482     0.44170
Cu58       Cu  0.22535396  0.27904689  0.24910732     0.41990
Cu59       Cu  0.17574524  0.41523601  0.24401218     0.43880
N60         N  0.05968630  0.39128102  0.23218444    -0.34220
N61         N  0.09542890  0.43001811  0.24272859    -0.28480
C62         C  0.07041856  0.47736155  0.25182149    -0.04580
C63         C  0.01604027  0.46771488  0.24721535     0.07640
C64         C  0.01038852  0.41273252  0.23467515     0.01440
H65         H  0.09041576  0.51565849  0.26184416     0.09090
H66         H  0.97338478  0.38979287  0.22996047     0.08170
N67         N  0.25322718  0.39558219  0.21914606    -0.35670
N68         N  0.27308205  0.34616153  0.21842971    -0.27850
C69         C  0.32340711  0.34896533  0.19036984    -0.03090
C70         C  0.33522615  0.40294709  0.17346987     0.05520
C71         C  0.28924173  0.43064255  0.19180373     0.03610
H72         H  0.34861923  0.31422612  0.18051186     0.08720
H73         H  0.28080707  0.47281092  0.18173320     0.07550
N74         N  0.73572864  0.65423901  0.20841683    -0.26840
N75         N  0.74811505  0.60224839  0.21319731    -0.34690
C76         C  0.71063474  0.57173860  0.18343698     0.01500
C77         C  0.67265550  0.60546933  0.15805300     0.07530
C78         C  0.68953829  0.65772666  0.17409296    -0.05570
H79         H  0.71195226  0.52801046  0.17863521     0.08200
H80         H  0.66980004  0.69522270  0.16188439     0.09400
Cu81       Cu  0.81734166  0.57022236  0.24896831     0.44170
Cu82       Cu  0.78263720  0.71722270  0.24980361     0.41990
Cu83       Cu  0.91163195  0.66277106  0.29706166     0.43880
N84         N  0.89536801  0.54785709  0.26015638    -0.34220
N85         N  0.93187745  0.58429441  0.27647444    -0.28480
C86         C  0.98030724  0.56135132  0.27502263    -0.04580
C87         C  0.97364458  0.50760081  0.25672353     0.07640
C88         C  0.91928041  0.50017629  0.24767571     0.01440
H89         H  0.01745690  0.58245713  0.28569843     0.09090
H90         H  0.89887641  0.46355898  0.23143530     0.08170
N91         N  0.88604595  0.73894472  0.32162548    -0.35670
N92         N  0.84070172  0.76139995  0.30366639    -0.27850
C93         C  0.84068278  0.81326677  0.32664064    -0.03090
C94         C  0.88797698  0.82270736  0.36153355     0.05520
C95         C  0.91526678  0.77458508  0.35673075     0.03610
H96         H  0.80970238  0.84214665  0.31617787     0.08720
H97         H  0.95459315  0.76631074  0.37604856     0.07550
C98         C  0.00132153  0.00044026  0.50216838    -0.02030
C99         C  0.91462313  0.94363726  0.47839007    -0.11810
C100        C  0.96950629  0.95560715  0.46215912     0.05190
C101        C  0.99517301  0.92180927  0.41160249    -0.07100
C102        C  0.96544282  0.88367507  0.37516999    -0.07840
C103        C  0.91115313  0.87302569  0.39095657    -0.02400
C104        C  0.88558457  0.90294688  0.44416864     0.04420
N105        N  0.83211475  0.88959194  0.46876203     0.66930
H106        H  0.89391133  0.96383604  0.52057425     0.15830
H107        H  0.98636977  0.85930851  0.33662321     0.15540
N108        N  0.05204858  0.92260112  0.39875887     0.74630
O109        O  0.82188230  0.88611808  0.53280974    -0.38820
O110        O  0.79372602  0.89004045  0.42797991    -0.38760
O111        O  0.07930633  0.88648245  0.42702998    -0.39470
O112        O  0.07065949  0.94388486  0.34369288    -0.39530
C113        C  0.09355796  0.11874137  0.43165608    -0.11810
C114        C  0.08491603  0.11704171  0.36092483     0.05190
C115        C  0.04718519  0.07963711  0.33540261    -0.07100
C116        C  0.02035440  0.04366757  0.38116551    -0.07840
C117        C  0.03016406  0.04280066  0.45262855    -0.02400
C118        C  0.06541958  0.08409061  0.47770949     0.04420
N119        N  0.07212855  0.09308629  0.54985867     0.66930
H120        H  0.12001294  0.14968435  0.45203065     0.15830
H121        H  0.99042619  0.01715594  0.35977267     0.15540
N122        N  0.03528257  0.07774926  0.26325959     0.74630
O123        O  0.11590739  0.08034950  0.57610414    -0.38820
O124        O  0.04414107  0.12910599  0.57934959    -0.38760
O125        O  0.07200624  0.08516097  0.21776901    -0.39470
O126        O  0.98896977  0.06397606  0.24465554    -0.39530
C127        C  0.88238603  0.09208013  0.56201448    -0.11810
C128        C  0.88621569  0.09184465  0.63355088     0.05190
C129        C  0.93185512  0.06902401  0.66338584    -0.07100
C130        C  0.96939627  0.04189070  0.62004913    -0.07840
C131        C  0.96267440  0.03604677  0.54822118    -0.02400
C132        C  0.92024754  0.06625913  0.51921457     0.04420
N133        N  0.91392362  0.07097949  0.44638504     0.66930
H134        H  0.84836978  0.11123762  0.53890871     0.15830
H135        H  0.00446246  0.02557231  0.64325499     0.15540
N136        N  0.94122198  0.07283445  0.73652871     0.74630
O137        O  0.87804965  0.04292376  0.41816905    -0.38820
O138        O  0.92992427  0.11422448  0.41700451    -0.38760
O139        O  0.90813016  0.09553916  0.77740501    -0.39470
O140        O  0.98456438  0.05604123  0.76035032    -0.39530
C141        C  0.09859690  0.97077421  0.52699156    -0.11810
C142        C  0.04300831  0.96760029  0.54454490     0.05090
C143        C  0.02745907  0.92923695  0.59728230    -0.07100
C144        C  0.06652469  0.90349991  0.63622900    -0.07840
C145        C  0.12128447  0.91184184  0.62174588    -0.02400
C146        C  0.13732237  0.94329679  0.56383493     0.04420
N147        N  0.19262749  0.94616821  0.54002346     0.66930
H148        H  0.11288693  0.99255118  0.48169588     0.15830
H149        H  0.05386266  0.87745499  0.67888673     0.15540
N150        N  0.97249289  0.91467466  0.61171914     0.74630
O151        O  0.21066959  0.98802051  0.50915062    -0.38820
O152        O  0.22168150  0.90462431  0.54206700    -0.38760
O153        O  0.95420309  0.87211925  0.58434524    -0.39470
O154        O  0.94993931  0.93144526  0.66671311    -0.39530
C155        C  0.40702899  0.39578364  0.08160518    -0.11810
C156        C  0.38179293  0.42647825  0.13352973     0.05190
C157        C  0.39574868  0.48188378  0.13944492    -0.07100
C158        C  0.43133739  0.50557835  0.09084937    -0.07840
C159        C  0.45961892  0.47541472  0.03990856    -0.02400
C160        C  0.44457064  0.41903775  0.03416624     0.04420
N161        N  0.46157213  0.38521316  0.97773882     0.66930
H162        H  0.39483282  0.35379962  0.07466472     0.15830
H163        H  0.43973663  0.54824982  0.09592163     0.15540
N164        N  0.37600391  0.51444145  0.19609262     0.74630
O165        O  0.48207445  0.33980793  0.99032472    -0.38820
O166        O  0.44268142  0.39301458  0.91902309    -0.38760
O167        O  0.37466944  0.49549063  0.25663454    -0.39470
O168        O  0.36668140  0.56418352  0.18729139    -0.39530
C169        C  0.62786350  0.59281435  0.04788174    -0.11810
C170        C  0.62610494  0.58683839  0.11944219     0.05190
C171        C  0.58699388  0.55237168  0.15078502    -0.07100
C172        C  0.54955683  0.52591259  0.10964574    -0.07840
C173        C  0.54738460  0.53492770  0.03753775    -0.02400
C174        C  0.59059110  0.56620222  0.00663606     0.04420
N175        N  0.59888454  0.57018387  0.93348519     0.66930
H176        H  0.66039662  0.61602810  0.02326999     0.15830
H177        H  0.52289082  0.49725566  0.13547642     0.15540
N178        N  0.58510667  0.54324301  0.22426326     0.74630
O179        O  0.62963880  0.53651503  0.90394879    -0.38820
O180        O  0.59211950  0.61535124  0.90455906    -0.38760
O181        O  0.59715137  0.58097480  0.26523405    -0.39470
O182        O  0.56658314  0.49911049  0.24880371    -0.39530
C183        C  0.56275971  0.42434731  0.83591340    -0.11810
C184        C  0.59336162  0.38667183  0.87082514     0.05190
C185        C  0.59748847  0.39098187  0.94276466    -0.07100
C186        C  0.56786634  0.43078367  0.97822502    -0.07840
C187        C  0.53446166  0.46826333  0.94465801    -0.02400
C188        C  0.53479825  0.46590730  0.87072532     0.04420
N189        N  0.50733214  0.50361725  0.82874356     0.66930
H190        H  0.55988626  0.42090131  0.78046565     0.15830
H191        H  0.56960302  0.43141161  0.03385772     0.15540
N192        N  0.62909789  0.35371238  0.98121662     0.74630
O193        O  0.52522005  0.55150635  0.82212290    -0.38820
O194        O  0.47463550  0.48587863  0.78545160    -0.38760
O195        O  0.67392194  0.33801029  0.95725993    -0.39470
O196        O  0.61545406  0.34149671  0.04259730    -0.39530
C197        C  0.44494270  0.64406918  0.92087534    -0.11810
C198        C  0.40727272  0.62439459  0.87497903     0.05190
C199        C  0.39420029  0.56854232  0.87611589    -0.07100
C200        C  0.42389715  0.53363028  0.91770378    -0.07840
C201        C  0.46778807  0.55200995  0.95684242    -0.02400
C202        C  0.47307430  0.60993278  0.96413885     0.04420
N203        N  0.50259786  0.63644702  0.01729127     0.66930
H204        H  0.45147151  0.68754994  0.92483239     0.15830
H205        H  0.41490739  0.49068579  0.91568505     0.15540
N206        N  0.35331039  0.54584980  0.83357341     0.74630
O207        O  0.53296931  0.67628945  0.00157464    -0.38820
O208        O  0.48690077  0.63127318  0.07942303    -0.38760
O209        O  0.34679114  0.56372397  0.77346458    -0.39470
O210        O  0.32724098  0.50407382  0.85331033    -0.39530
loop_ 
_geom_bond_atom_site_label_1 
_geom_bond_atom_site_label_2 
_geom_bond_distance 
_geom_bond_site_symmetry_2 
_ccdc_geom_bond_type 
C1          C159   1.581   1_556  S
C1          C173   1.575   1_556  S
C1          C187   1.570       .  S
C1          C201   1.577       .  S
N2            N3   1.323       .  A
N2            C6   1.355       .  A
N2          Cu10   2.107       .  S
N3            C4   1.337       .  A
N3           Cu9   2.061       .  S
C4            C5   1.379       .  A
C4            H7   1.082       .  S
C5            C6   1.393       .  A
C5          C198   1.485       .  S
C6            H8   1.082       .  S
Cu9          N12   2.062       .  S
Cu10         N20   2.107       .  S
Cu11         N13   2.062       .  S
Cu11         N19   2.062       .  S
N12          N13   1.319       .  A
N12          C16   1.345       .  A
N13          C14   1.344       .  A
C14          C15   1.384       .  A
C14          H17   1.082   1_565  S
C15          C16   1.384       .  A
C15          C39   1.470   1_565  S
C16          H18   1.082       .  S
N19          N20   1.324       .  A
N19          C23   1.339       .  A
N20          C21   1.354       .  A
C21          C22   1.391       .  A
C21          H24   1.082       .  S
C22          C23   1.378       .  A
C22         C145   1.482       .  S
C23          H25   1.082       .  S
N26          N27   1.324       .  A
N26          C30   1.351       .  A
N26         Cu34   2.100       .  S
N27          C28   1.341       .  A
N27         Cu33   2.062       .  S
C28          C29   1.376       .  A
C28          H31   1.082       .  S
C29          C30   1.388       .  A
C29         C184   1.476       .  S
C30          H32   1.082       .  S
Cu33         N36   2.061       .  S
Cu34         N44   2.100       .  S
Cu35         N37   2.067       .  S
Cu35         N43   2.068       .  S
N36          N37   1.319       .  A
N36          C40   1.343       .  A
N37          C38   1.345       .  A
C38          C39   1.384       .  A
C38          H41   1.082   1_545  S
C39          C40   1.383       .  A
C40          H42   1.082       .  S
N43          N44   1.324       .  A
N43          C47   1.342       .  A
N44          C45   1.351       .  A
C45          C46   1.388       .  A
C45          H48   1.082       .  S
C46          C47   1.377       .  A
C46         C128   1.475       .  S
C47          H49   1.082       .  S
N50          N51   1.325       .  A
N50          C54   1.351       .  A
N50         Cu58   2.101       .  S
N51          C52   1.339       .  A
N51         Cu57   2.055       .  S
C52          C53   1.375       .  A
C52          H55   1.082       .  S
C53          C54   1.388       .  A
C53         C114   1.475       .  S
C54          H56   1.082       .  S
Cu57         N60   2.055       .  S
Cu58         N68   2.099       .  S
Cu59         N61   2.041       .  S
Cu59         N67   2.040       .  S
N60          N61   1.318       .  A
N60          C64   1.344       .  A
N61          C62   1.339       .  A
C62          C63   1.379       .  A
C62          H65   1.082       .  S
C63          C64   1.383       .  A
C63          C87   1.460   1_455  S
C64          H66   1.082   1_455  S
N67          N68   1.320       .  A
N67          C71   1.335       .  A
N68          C69   1.352       .  A
C69          C70   1.395       .  A
C69          H72   1.082       .  S
C70          C71   1.379       .  A
C70         C156   1.486       .  S
C71          H73   1.082       .  S
N74          N75   1.325       .  A
N74          C78   1.352       .  A
N74         Cu82   2.106       .  S
N75          C76   1.337       .  A
N75         Cu81   2.048       .  S
C76          C77   1.371       .  A
C76          H79   1.082       .  S
C77          C78   1.388       .  A
C77         C170   1.470       .  S
C78          H80   1.082       .  S
Cu81         N84   2.047       .  S
Cu82         N92   2.104       .  S
Cu83         N85   2.041       .  S
Cu83         N91   2.042       .  S
N84          N85   1.316       .  A
N84          C88   1.343       .  A
N85          C86   1.339       .  A
C86          C87   1.380       .  A
C86          H89   1.082   1_655  S
C87          C88   1.382       .  A
C88          H90   1.082       .  S
N91          N92   1.321       .  A
N91          C95   1.334       .  A
N92          C93   1.354       .  A
C93          C94   1.395       .  A
C93          H96   1.081       .  S
C94          C95   1.376       .  A
C94         C103   1.483       .  S
C95          H97   1.082       .  S
C98         C100   1.571   1_445  S
C98         C117   1.570       .  S
C98         C131   1.569   1_455  S
C98         C142   1.577   1_545  S
C99         C100   1.421       .  A
C99         C104   1.408       .  A
C99         H106   1.079       .  S
C100        C101   1.428       .  A
C101        C102   1.395       .  A
C101        N108   1.432   1_655  S
C102        C103   1.399       .  A
C102        H107   1.084       .  S
C103        C104   1.409       .  A
C104        N105   1.435       .  S
N105        O109   1.263       .  A
N105        O110   1.261       .  A
N108        O111   1.262       .  A
N108        O112   1.262       .  A
C113        C114   1.396       .  A
C113        C118   1.401       .  A
C113        H120   1.084       .  S
C114        C115   1.409       .  A
C115        C116   1.402       .  A
C115        N122   1.440       .  S
C116        C117   1.415       .  A
C116        H121   1.078   1_455  S
C117        C118   1.431       .  A
C118        N119   1.431       .  S
N119        O123   1.262       .  A
N119        O124   1.262       .  A
N122        O125   1.262       .  A
N122        O126   1.263   1_455  A
C127        C128   1.394       .  A
C127        C132   1.397       .  A
C127        H134   1.085       .  S
C128        C129   1.415       .  A
C129        C130   1.413       .  A
C129        N136   1.448       .  S
C130        C131   1.415       .  A
C130        H135   1.078   1_655  S
C131        C132   1.431       .  A
C132        N133   1.431       .  S
N133        O137   1.262       .  A
N133        O138   1.262       .  A
N136        O139   1.262       .  A
N136        O140   1.263       .  A
C141        C142   1.418       .  A
C141        C146   1.400       .  A
C141        H148   1.078       .  S
C142        C143   1.433       .  A
C143        C144   1.408       .  A
C143        N150   1.431   1_455  S
C144        C145   1.397       .  A
C144        H149   1.083       .  S
C145        C146   1.409       .  A
C146        N147   1.441       .  S
N147        O151   1.263       .  A
N147        O152   1.263       .  A
N150        O153   1.262       .  A
N150        O154   1.262       .  A
C155        C156   1.398       .  A
C155        C160   1.408       .  A
C155        H162   1.084       .  S
C156        C157   1.410       .  A
C157        C158   1.396       .  A
C157        N164   1.438       .  S
C158        C159   1.412       .  A
C158        H163   1.075       .  S
C159        C160   1.439       .  A
C160        N161   1.432   1_554  S
N161        O165   1.263       .  A
N161        O166   1.262       .  A
N164        O167   1.263       .  A
N164        O168   1.263       .  A
C169        C170   1.395       .  A
C169        C174   1.402       .  A
C169        H176   1.084       .  S
C170        C171   1.408       .  A
C171        C172   1.402       .  A
C171        N178   1.442       .  S
C172        C173   1.419       .  A
C172        H177   1.076       .  S
C173        C174   1.432       .  A
C174        N175   1.430   1_554  S
N175        O179   1.262       .  A
N175        O180   1.262       .  A
N178        O181   1.263       .  A
N178        O182   1.263       .  A
C183        C184   1.397       .  A
C183        C188   1.407       .  A
C183        H190   1.083       .  S
C184        C185   1.406       .  A
C185        C186   1.402       .  A
C185        N192   1.441       .  S
C186        C187   1.423       .  A
C186        H191   1.081   1_556  S
C187        C188   1.435       .  A
C188        N189   1.430       .  S
N189        O193   1.261       .  A
N189        O194   1.263       .  A
N192        O195   1.262       .  A
N192        O196   1.263   1_556  A
C197        C198   1.397       .  A
C197        C202   1.398       .  A
C197        H204   1.085       .  S
C198        C199   1.410       .  A
C199        C200   1.412       .  A
C199        N206   1.439       .  S
C200        C201   1.421       .  A
C200        H205   1.080       .  S
C201        C202   1.439       .  A
C202        N203   1.438   1_556  S
N203        O207   1.263       .  A
N203        O208   1.261       .  A
N206        O209   1.262       .  A
N206        O210   1.263       .  A
