geometry optimzed in LAMMPS
_audit_creation_date              2020-12-01 
_audit_creation_method            'lammps2cif' 
_symmetry_space_group_name_H-M    'P1' 
_symmetry_Int_Tables_number       1 
_symmetry_cell_setting            triclinic 
loop_ 
_symmetry_equiv_pos_as_xyz 
  x,y,z 
_cell_length_a                    27.96364608 
_cell_length_b                    28.22767850963807 
_cell_length_c                    26.881789482422633 
_cell_angle_alpha                 88.45504394295504 
_cell_angle_beta                  89.7863117913368 
_cell_angle_gamma                 89.73475420409478 
loop_ 
_atom_site_label 
_atom_site_type_symbol 
_atom_site_fract_x 
_atom_site_fract_y 
_atom_site_fract_z 
_atom_site_charge 
O1          O  0.47282599  0.50631008  0.87309905    -0.78100
O2          O  0.54357797  0.51569829  0.08317801    -0.78200
O3          O  0.45423691  0.57006211  0.02710785    -0.78200
O4          O  0.60545779  0.56088529  0.94083569    -0.78100
O5          O  0.49407090  0.52701963  0.08267620    -0.78200
O6          O  0.55856653  0.53857041  0.88158614    -0.78200
O7          O  0.60854201  0.53248197  0.03718765    -0.78100
O8          O  0.45513656  0.56151142  0.92567981    -0.78200
C9          C  0.45464598  0.54641991  0.88197805     1.11600
C10         C  0.58384883  0.53682629  0.07630157     1.11400
C11         C  0.46943736  0.56424232  0.07087319     1.11600
C12         C  0.58849444  0.56736207  0.89813145     1.11500
O13         O  0.54930847  0.44869773  0.85459067    -0.78100
O14         O  0.47849282  0.43593168  0.09191663    -0.78200
O15         O  0.42883407  0.46184556  0.93939717    -0.78200
O16         O  0.60774547  0.43404671  0.00625737    -0.78100
O17         O  0.56612732  0.44262907  0.07346773    -0.78200
O18         O  0.49542813  0.42119352  0.93380734    -0.78200
O19         O  0.60866974  0.46151979  0.90781000    -0.78100
O20         O  0.42538020  0.47063354  0.04146927    -0.78200
Co21       Co  0.52879306  0.47950181  0.91189724     1.51500
Co22       Co  0.50888561  0.46920309  0.03966060     1.51700
Co23       Co  0.44826518  0.51597225  0.98257860     1.51600
Co24       Co  0.60030818  0.49834423  0.97418924     1.51500
O25         O  0.52411776  0.50502885  0.97895787    -1.40100
C26         C  0.59265031  0.44386012  0.86706336     1.11500
C27         C  0.43575176  0.44286939  0.07916200     1.11600
C28         C  0.45061946  0.42370806  0.92940301     1.11500
C29         C  0.60155081  0.42536967  0.05187301     1.11500
O30         O  0.54721086  0.91490050  0.41664531    -0.78100
O31         O  0.58562562  0.08971866  0.51259079    -0.78200
O32         O  0.59948431  0.06774316  0.39794393    -0.78200
O33         O  0.56204412  0.95694490  0.57215354    -0.78100
O34         O  0.55115032  0.12033720  0.42998835    -0.78200
O35         O  0.58225119  0.92836947  0.50199925    -0.78200
O36         O  0.56430376  0.04994245  0.57812043    -0.78100
O37         O  0.59758721  0.97006501  0.39112116    -0.78200
C38         C  0.58502062  0.92709837  0.39359678     1.11600
C39         C  0.59212241  0.07887935  0.55718441     1.11400
C40         C  0.58934686  0.11037024  0.40679167     1.11600
C41         C  0.58866717  0.93041851  0.54758308     1.11500
O42         O  0.49134845  0.89365938  0.50049269    -0.78100
O43         O  0.46102651  0.06995816  0.44803179    -0.78200
O44         O  0.49688538  0.97442242  0.36987425    -0.78200
O45         O  0.46542515  0.06128866  0.54594634    -0.78100
O46         O  0.49660274  0.12909580  0.51641202    -0.78200
O47         O  0.45943819  0.96554109  0.44064225    -0.78200
O48         O  0.46281634  0.95706141  0.53881721    -0.78100
O49         O  0.49804577  0.07090583  0.37644118    -0.78200
Co50       Co  0.52045077  0.94958434  0.47471402     1.51500
Co51       Co  0.52305651  0.07697079  0.48297124     1.51700
Co52       Co  0.54802857  0.02045071  0.38981943     1.51600
Co53       Co  0.51653836  0.00726657  0.54717945     1.51500
O54         O  0.54330998  0.01364380  0.46772173    -1.40100
C55         C  0.46220189  0.91189401  0.53084082     1.11500
C56         C  0.46135029  0.08017287  0.40216931     1.11600
C57         C  0.46098375  0.95963254  0.39445168     1.11500
C58         C  0.46710708  0.10726245  0.54456530     1.11500
O59         O  0.98376425  0.44399277  0.44174804    -0.78100
O60         O  0.14876031  0.48211472  0.52278239    -0.78200
O61         O  0.08781591  0.48207225  0.38256754    -0.78200
O62         O  0.97750015  0.44390169  0.53866152    -0.78100
O63         O  0.08732263  0.44605210  0.45564777    -0.78200
O64         O  0.91163340  0.47215382  0.50104199    -0.78200
O65         O  0.08182041  0.45037390  0.55353100    -0.78100
O66         O  0.99112253  0.48319621  0.37154681    -0.78200
C67         C  0.97809687  0.44625146  0.39538678     1.11600
C68         C  0.12814753  0.45244832  0.55161015     1.11400
C69         C  0.09620404  0.44561551  0.40974723     1.11600
C70         C  0.93186643  0.44209539  0.53015460     1.11500
O71         O  0.94415170  0.56334660  0.50415048    -0.78100
O72         O  0.13872852  0.53417661  0.43528086    -0.78200
O73         O  0.98749372  0.58226439  0.39284880    -0.78200
O74         O  0.06547952  0.54863207  0.58111060    -0.78100
O75         O  0.10746130  0.56947442  0.51687801    -0.78200
O76         O  0.93171733  0.53195198  0.41779659    -0.78200
O77         O  0.97134620  0.53959744  0.57483126    -0.78100
O78         O  0.08661746  0.58314698  0.40122686    -0.78200
Co79       Co  0.96692127  0.50335514  0.47630314     1.51500
Co80       Co  0.09502030  0.50757229  0.48850562     1.51700
Co81       Co  0.03796025  0.53276780  0.39308881     1.51600
Co82       Co  0.02504582  0.49889198  0.55026436     1.51500
O83         O  0.03099989  0.52725478  0.47097960    -1.40100
C84         C  0.94421964  0.56657644  0.55016553     1.11500
C85         C  0.12954388  0.57185421  0.41037858     1.11600
C86         C  0.94396493  0.57027689  0.39550367     1.11500
C87         C  0.09515437  0.57619679  0.56067234     1.11500
C88         C  0.80061287  0.32761049  0.29195209     0.05100
C89         C  0.78124496  0.34517611  0.24678068    -0.11000
C90         C  0.73727762  0.32799748  0.22972270     0.02600
C91         C  0.71282860  0.29333975  0.25790788    -0.09500
C92         C  0.73175653  0.27568878  0.30289325     0.05100
C93         C  0.77571616  0.29275187  0.31985373    -0.09000
H94         H  0.79991846  0.37250571  0.22542297     0.10700
H95         H  0.67866571  0.28042517  0.24505463     0.08200
H96         H  0.79017913  0.27941829  0.35491182     0.08100
C97         C  0.75875670  0.68485569  0.29226345     0.05100
C98         C  0.73314192  0.65871560  0.25785022    -0.11000
C99         C  0.68942971  0.67582722  0.23940208     0.02600
C100        C  0.67136085  0.71926988  0.25518074    -0.09500
C101        C  0.69688294  0.74545935  0.28968293     0.05100
C102        C  0.74066791  0.72831165  0.30814225    -0.09000
H103        H  0.74680282  0.62475619  0.24608515     0.10700
H104        H  0.63716234  0.73218934  0.24141948     0.08200
H105        H  0.76002433  0.74815947  0.33550918     0.08100
C106        C  0.72043722  0.30744858  0.71659145     0.05100
C107        C  0.76039609  0.32605547  0.69159713    -0.11000
C108        C  0.78229812  0.30067826  0.65366841     0.02600
C109        C  0.76459236  0.25627115  0.64108157    -0.09500
C110        C  0.72462005  0.23745777  0.66610631     0.05100
C111        C  0.70256477  0.26305798  0.70394701    -0.09000
H112        H  0.77341055  0.36097492  0.70045605     0.10700
H113        H  0.78071632  0.23727028  0.61071374     0.08200
H114        H  0.67074479  0.24924584  0.72227741     0.08100
C115        C  0.36572518  0.76475741  0.30407895     0.05100
C116        C  0.32673087  0.74144940  0.32681082    -0.11000
C117        C  0.31337660  0.69609307  0.31189326     0.02600
C118        C  0.33921751  0.67401621  0.27402789    -0.09500
C119        C  0.37826706  0.69690561  0.25101305     0.05100
C120        C  0.39146105  0.74232113  0.26617577    -0.09000
H121        H  0.30689633  0.75852443  0.35613266     0.10700
H122        H  0.32891616  0.63901380  0.26244830     0.08200
H123        H  0.42164175  0.76010058  0.24860652     0.08100
C124        C  0.33732613  0.68244967  0.71322399     0.05100
C125        C  0.29055968  0.66947440  0.70096741    -0.11000
C126        C  0.26473469  0.69601829  0.66521940     0.02600
C127        C  0.28560924  0.73587136  0.64189938    -0.09500
C128        C  0.33231520  0.74909255  0.65399526     0.05100
C129        C  0.35809664  0.72239360  0.68976342    -0.09000
H130        H  0.27475360  0.63807979  0.71825887     0.10700
H131        H  0.26606573  0.75575013  0.61343070     0.08200
H132        H  0.39450429  0.73212076  0.69858829     0.08100
C133        C  0.33850264  0.30828793  0.75418137     0.05100
C134        C  0.29991707  0.33283080  0.73183038    -0.11000
C135        C  0.28247679  0.31909922  0.68541332     0.02600
C136        C  0.30345364  0.28060684  0.66166659    -0.09500
C137        C  0.34186982  0.25602750  0.68365051     0.05100
C138        C  0.35931031  0.26979301  0.72995132    -0.09000
H139        H  0.28440135  0.36322744  0.74981541     0.10700
H140        H  0.29067448  0.27053788  0.62540362     0.08200
H141        H  0.38977253  0.25143765  0.74641688     0.08100
C142        C  0.70244410  0.69044020  0.71998133     0.05100
C143        C  0.68607641  0.73308528  0.69806407    -0.11000
C144        C  0.70979012  0.75321173  0.65665512     0.02600
C145        C  0.75019313  0.73055800  0.63707547    -0.09500
C146        C  0.76692314  0.68783195  0.65876072     0.05100
C147        C  0.74295216  0.66783407  0.70029235    -0.09000
H148        H  0.65454662  0.75033006  0.71287090     0.10700
H149        H  0.76824927  0.74586572  0.60473227     0.08200
H150        H  0.75546872  0.63463882  0.71689117     0.08100
C151        C  0.31629247  0.24426672  0.30038711     0.05100
C152        C  0.33449673  0.26819821  0.25791375    -0.11000
C153        C  0.31140799  0.30902544  0.23881823     0.02600
C154        C  0.26997627  0.32568902  0.26198081    -0.09500
C155        C  0.25172282  0.30227537  0.30447009     0.05100
C156        C  0.27484395  0.26148703  0.32366848    -0.09000
H157        H  0.36710733  0.25577580  0.24053276     0.10700
H158        H  0.25274890  0.35780982  0.24783464     0.08200
H159        H  0.26127225  0.24386459  0.35712588     0.08100
C160        C  0.15684532  0.41951631  0.58076450    -0.16500
C161        C  0.18309173  0.39491486  0.60627522     0.07600
C162        C  0.21577130  0.36816894  0.63610147     0.09400
C163        C  0.24519266  0.34597636  0.66015021    -0.17400
C164        C  0.21868970  0.67970859  0.64908110    -0.16500
C165        C  0.18282599  0.66259087  0.63256593     0.07600
C166        C  0.14524055  0.63781734  0.61000301     0.09400
C167        C  0.11848451  0.61213161  0.58837901    -0.17400
C168        C  0.16814115  0.60107990  0.39140409    -0.16500
C169        C  0.20096285  0.62445254  0.37463340     0.07600
C170        C  0.23983039  0.65066859  0.35391591     0.09400
C171        C  0.27319627  0.67197250  0.33531558    -0.17400
C172        C  0.21138555  0.32278592  0.32989384    -0.16500
C173        C  0.17983762  0.34497147  0.34956623     0.07600
C174        C  0.14612906  0.37582322  0.37129826     0.09400
C175        C  0.12086367  0.40580511  0.38912688    -0.17400
C176        C  0.91090035  0.59757154  0.57463458    -0.16500
C177        C  0.87987886  0.62009238  0.59502030     0.07600
C178        C  0.84152096  0.64421844  0.61836809     0.09400
C179        C  0.80789947  0.66406055  0.63744049    -0.17400
C180        C  0.90429972  0.40418752  0.55192389    -0.16500
C181        C  0.87971202  0.37513366  0.57321942     0.07600
C182        C  0.84878380  0.34483537  0.60053092     0.09400
C183        C  0.81995329  0.32254101  0.62479577    -0.17400
C184        C  0.94930176  0.41143173  0.37101466    -0.16500
C185        C  0.91934092  0.38768537  0.35095526     0.07600
C186        C  0.88021060  0.36433324  0.32860400     0.09400
C187        C  0.84479285  0.34681661  0.31096253    -0.17400
C188        C  0.80221061  0.66557008  0.31314413    -0.16500
C189        C  0.83712157  0.64683888  0.33116882     0.07600
C190        C  0.87619400  0.62235720  0.35297077     0.09400
C191        C  0.90800366  0.59956315  0.37218362    -0.17400
C192        C  0.62839843  0.10227439  0.58492917    -0.16500
C193        C  0.65526161  0.12717852  0.60737642     0.07600
C194        C  0.68273875  0.16151018  0.63146832     0.09400
C195        C  0.70323366  0.19450513  0.64918585    -0.17400
C196        C  0.43400935  0.13413894  0.57368649    -0.16500
C197        C  0.41004634  0.15884439  0.60006341     0.07600
C198        C  0.38513872  0.19012210  0.63131764     0.09400
C199        C  0.36522798  0.21891960  0.65665818    -0.17400
C200        C  0.34172776  0.20372385  0.32157097    -0.16500
C201        C  0.36484652  0.17127505  0.33971222     0.07600
C202        C  0.39456528  0.13543193  0.36144098     0.09400
C203        C  0.42290633  0.10777789  0.38017002    -0.17400
C204        C  0.70501054  0.24070534  0.33155879    -0.16500
C205        C  0.67980821  0.21164521  0.35244085     0.07600
C206        C  0.64838018  0.17740727  0.37378411     0.09400
C207        C  0.62114792  0.14749272  0.38980409    -0.17400
C208        C  0.35475249  0.78833727  0.62756343    -0.16500
C209        C  0.37494274  0.81969684  0.60446398     0.07600
C210        C  0.40130146  0.85450964  0.57731316     0.09400
C211        C  0.42699512  0.88214978  0.55505486    -0.17400
C212        C  0.69130051  0.79618886  0.63333631    -0.16500
C213        C  0.67301138  0.83093590  0.61410200     0.07600
C214        C  0.64800772  0.86956680  0.59152207     0.09400
C215        C  0.62312303  0.89970026  0.57184929    -0.17400
C216        C  0.67657111  0.78834366  0.30849423    -0.16500
C217        C  0.65784458  0.82260805  0.32607073     0.07600
C218        C  0.63428978  0.86079996  0.34858957     0.09400
C219        C  0.61277940  0.89188731  0.36897195    -0.17400
C220        C  0.37965571  0.81133331  0.32034206    -0.16500
C221        C  0.39201813  0.84953909  0.33526719     0.07600
C222        C  0.40921854  0.89280914  0.35430147     0.09400
C223        C  0.42870429  0.92672687  0.37193812    -0.17400
C224        C  0.63597584  0.39811245  0.08057568    -0.16500
C225        C  0.66351291  0.37980815  0.11001357     0.07600
C226        C  0.69323425  0.36159456  0.14879666     0.09200
C227        C  0.71555584  0.34679019  0.18449467    -0.17400
C228        C  0.66255745  0.64789380  0.20550317    -0.16500
C229        C  0.64134553  0.62315504  0.17730257     0.07600
C230        C  0.61864459  0.59312635  0.14374247     0.09400
C231        C  0.60146018  0.56717457  0.11389121    -0.17400
C232        C  0.40432502  0.67350452  0.21173568    -0.16500
C233        C  0.42402730  0.65202027  0.17890998     0.07600
C234        C  0.44443784  0.62461727  0.14044189     0.09400
C235        C  0.45855733  0.59887361  0.10804394    -0.17400
C236        C  0.39905925  0.41809098  0.10670792    -0.16500
C237        C  0.37409934  0.39304888  0.13290740     0.07600
C238        C  0.35004688  0.36197510  0.16661778     0.09400
C239        C  0.33199588  0.33635514  0.19803038    -0.17400
C240        C  0.67661294  0.66946498  0.76174604    -0.16500
C241        C  0.65393536  0.65169735  0.79577899     0.07600
C242        C  0.62763038  0.62846214  0.83443765     0.09400
C243        C  0.60727320  0.60416828  0.86555460    -0.17400
C244        C  0.62406439  0.41703207  0.83625942    -0.16500
C245        C  0.64820654  0.39200288  0.81055499     0.07600
C246        C  0.67441481  0.36145531  0.77987557     0.09400
C247        C  0.69570986  0.33583839  0.75222855    -0.17400
C248        C  0.42521497  0.38745396  0.90356759    -0.16500
C249        C  0.40345016  0.36341326  0.87474383     0.07600
C250        C  0.37876327  0.34085308  0.83585808     0.09400
C251        C  0.35924511  0.32483101  0.79987097    -0.17400
C252        C  0.43215298  0.57443731  0.84293562    -0.16500
C253        C  0.41175564  0.59903866  0.81210739     0.07600
C254        C  0.38665426  0.62851931  0.77742531     0.09400
C255        C  0.36452688  0.65353347  0.74831408    -0.17400
loop_ 
_geom_bond_atom_site_label_1 
_geom_bond_atom_site_label_2 
_geom_bond_distance 
_geom_bond_site_symmetry_2 
_ccdc_geom_bond_type 
O1            C9   1.267       .  A
O1          Co21   2.017       .  S
O2           C10   1.287       .  A
O2          Co22   2.034       .  S
O3           C11   1.259       .  A
O3          Co23   1.973   1_554  S
O4           C12   1.252       .  A
O4          Co24   1.964       .  S
O5           C11   1.287       .  A
O5          Co22   2.065       .  S
O6           C12   1.260       .  A
O6          Co21   2.018       .  S
O7           C10   1.264       .  A
O7          Co24   1.986   1_554  S
O8            C9   1.261       .  A
O8          Co23   1.981       .  S
C9          C252   1.442       .  S
C10         C231   1.432       .  S
C11         C235   1.447       .  S
C12         C243   1.440       .  S
O13          C26   1.265       .  A
O13         Co21   1.876       .  S
O14          C27   1.258       .  A
O14         Co22   1.872       .  S
O15          C28   1.269       .  A
O15         Co23   2.021       .  S
O16          C29   1.255       .  A
O16         Co24   1.998   1_554  S
O17          C29   1.250       .  A
O17         Co22   1.978       .  S
O18          C28   1.261       .  A
O18         Co21   1.971       .  S
O19          C26   1.298       .  A
O19         Co24   2.101       .  S
O20          C27   1.297       .  A
O20         Co23   2.108   1_554  S
Co21         O25   1.963       .  S
Co22         O25   1.943   1_554  S
Co23         O25   2.144       .  S
Co24         O25   2.142       .  S
C26         C244   1.433       .  S
C27         C236   1.436       .  S
C28         C248   1.443       .  S
C29         C224   1.442       .  S
O30          C38   1.268       .  A
O30         Co50   2.006       .  S
O31          C39   1.243       .  A
O31         Co51   1.964       .  S
O32          C40   1.264       .  A
O32         Co52   1.984       .  S
O33          C41   1.253       .  A
O33         Co53   2.006   1_565  S
O34          C40   1.269       .  A
O34         Co51   2.013       .  S
O35          C41   1.242       .  A
O35         Co50   1.965       .  S
O36          C39   1.252       .  A
O36         Co53   2.001       .  S
O37          C38   1.264       .  A
O37         Co52   1.981   1_565  S
C38         C219   1.433       .  S
C39         C192   1.435       .  S
C40         C207   1.441       .  S
C41         C215   1.440       .  S
O42          C55   1.268       .  A
O42         Co50   1.893       .  S
O43          C56   1.259       .  A
O43         Co51   1.989       .  S
O44          C57   1.266       .  A
O44         Co52   2.020   1_565  S
O45          C58   1.298       .  A
O45         Co53   2.085       .  S
O46          C58   1.268       .  A
O46         Co51   1.891       .  S
O47          C57   1.258       .  A
O47         Co50   1.984       .  S
O48          C55   1.299       .  A
O48         Co53   2.087   1_565  S
O49          C56   1.266       .  A
O49         Co52   2.017       .  S
Co50         O54   1.925   1_565  S
Co51         O54   1.927       .  S
Co52         O54   2.101       .  S
Co53         O54   2.264       .  S
C55         C211   1.439       .  S
C56         C203   1.444       .  S
C57         C223   1.444       .  S
C58         C196   1.437       .  S
O59          C67   1.257       .  A
O59         Co79   1.991       .  S
O60          C68   1.265       .  A
O60         Co80   1.894       .  S
O61          C69   1.267       .  A
O61         Co81   2.018       .  S
O62          C70   1.299       .  A
O62         Co82   2.079   1_655  S
O63          C69   1.258       .  A
O63         Co80   1.982       .  S
O64          C70   1.271       .  A
O64         Co79   1.893       .  S
O65          C68   1.298       .  A
O65         Co82   2.092       .  S
O66          C67   1.264       .  A
O66         Co81   2.019   1_655  S
C67         C184   1.446       .  S
C68         C160   1.443       .  S
C69         C175   1.438       .  S
C70         C180   1.433       .  S
O71          C84   1.243       .  A
O71         Co79   1.972       .  S
O72          C85   1.267       .  A
O72         Co80   2.011       .  S
O73          C86   1.266       .  A
O73         Co81   1.981   1_655  S
O74          C87   1.255       .  A
O74         Co82   2.005       .  S
O75          C87   1.245       .  A
O75         Co80   1.958       .  S
O76          C86   1.270       .  A
O76         Co79   2.007       .  S
O77          C84   1.251       .  A
O77         Co82   2.007   1_655  S
O78          C85   1.264       .  A
O78         Co81   1.990       .  S
Co79         O83   1.921   1_655  S
Co80         O83   1.928       .  S
Co81         O83   2.104       .  S
Co82         O83   2.262       .  S
C84         C176   1.444       .  S
C85         C168   1.445       .  S
C86         C191   1.434       .  S
C87         C167   1.435       .  S
C88         C187   1.452       .  S
C88          C89   1.408       .  A
C88          C93   1.406       .  A
C89          C90   1.407       .  A
C89          H94   1.084       .  S
C90         C227   1.448       .  S
C90          C91   1.400       .  A
C91          C92   1.400       .  A
C91          H95   1.085       .  S
C92         C204   1.446       .  S
C92          C93   1.404       .  A
C93          H96   1.084       .  S
C97         C188   1.439       .  S
C97          C98   1.400       .  A
C97         C102   1.401       .  A
C98          C99   1.400       .  A
C98         H103   1.085       .  S
C99         C228   1.437       .  S
C99         C100   1.400       .  A
C100        C101   1.401       .  A
C100        H104   1.085       .  S
C101        C216   1.438       .  S
C101        C102   1.402       .  A
C102        H105   1.084       .  S
C106        C247   1.439       .  S
C106        C107   1.399       .  A
C106        C111   1.402       .  A
C107        C108   1.399       .  A
C107        H112   1.085       .  S
C108        C183   1.437       .  S
C108        C109   1.400       .  A
C109        C110   1.402       .  A
C109        H113   1.084       .  S
C110        C195   1.440       .  S
C110        C111   1.403       .  A
C111        H114   1.085       .  S
C115        C220   1.452       .  S
C115        C116   1.405       .  A
C115        C120   1.408       .  A
C116        C117   1.405       .  A
C116        H121   1.084       .  S
C117        C171   1.450       .  S
C117        C118   1.404       .  A
C118        C119   1.404       .  A
C118        H122   1.084       .  S
C119        C232   1.452       .  S
C119        C120   1.407       .  A
C120        H123   1.084       .  S
C124        C255   1.447       .  S
C124        C125   1.403       .  A
C124        C129   1.404       .  A
C125        C126   1.403       .  A
C125        H130   1.085       .  S
C126        C164   1.442       .  S
C126        C127   1.402       .  A
C127        C128   1.402       .  A
C127        H131   1.085       .  S
C128        C208   1.444       .  S
C128        C129   1.405       .  A
C129        H132   1.084       .  S
C133        C251   1.450       .  S
C133        C134   1.407       .  A
C133        C138   1.405       .  A
C134        C135   1.406       .  A
C134        H139   1.084       .  S
C135        C163   1.447       .  S
C135        C136   1.400       .  A
C136        C137   1.400       .  A
C136        H140   1.085       .  S
C137        C199   1.443       .  S
C137        C138   1.404       .  A
C138        H141   1.085       .  S
C142        C240   1.447       .  S
C142        C143   1.402       .  A
C142        C147   1.406       .  A
C143        C144   1.402       .  A
C143        H148   1.085       .  S
C144        C212   1.445       .  S
C144        C145   1.403       .  A
C145        C146   1.404       .  A
C145        H149   1.084       .  S
C146        C179   1.449       .  S
C146        C147   1.407       .  A
C147        H150   1.084       .  S
C151        C200   1.449       .  S
C151        C152   1.406       .  A
C151        C156   1.406       .  A
C152        C153   1.404       .  A
C152        H157   1.084       .  S
C153        C239   1.443       .  S
C153        C154   1.399       .  A
C154        C155   1.400       .  A
C154        H158   1.085       .  S
C155        C172   1.444       .  S
C155        C156   1.405       .  A
C156        H159   1.084       .  S
C160        C161   1.210       .  T
C161        C162   1.419       .  S
C162        C163   1.210       .  T
C164        C165   1.207       .  T
C165        C166   1.413       .  S
C166        C167   1.206       .  T
C168        C169   1.211       .  T
C169        C170   1.421       .  S
C170        C171   1.211       .  T
C172        C173   1.208       .  T
C173        C174   1.416       .  S
C174        C175   1.208       .  T
C176        C177   1.211       .  T
C177        C178   1.421       .  S
C178        C179   1.211       .  T
C180        C181   1.204       .  T
C181        C182   1.410       .  S
C182        C183   1.204       .  T
C184        C185   1.212       .  T
C185        C186   1.423       .  S
C186        C187   1.213       .  T
C188        C189   1.205       .  T
C189        C190   1.411       .  S
C190        C191   1.205       .  T
C192        C193   1.206       .  T
C193        C194   1.412       .  S
C194        C195   1.206       .  T
C196        C197   1.207       .  T
C197        C198   1.414       .  S
C198        C199   1.207       .  T
C200        C201   1.211       .  T
C201        C202   1.421       .  S
C202        C203   1.211       .  T
C204        C205   1.209       .  T
C205        C206   1.418       .  S
C206        C207   1.209       .  T
C208        C209   1.208       .  T
C209        C210   1.416       .  S
C210        C211   1.208       .  T
C212        C213   1.209       .  T
C213        C214   1.417       .  S
C214        C215   1.208       .  T
C216        C217   1.205       .  T
C217        C218   1.410       .  S
C218        C219   1.204       .  T
C220        C221   1.213       .  T
C221        C222   1.423       .  S
C222        C223   1.212       .  T
C224        C225   1.210       .  T
C225        C226   1.420       .  S
C226        C227   1.211       .  T
C228        C229   1.204       .  T
C229        C230   1.409       .  S
C230        C231   1.204       .  T
C232        C233   1.213       .  T
C233        C234   1.424       .  S
C234        C235   1.213       .  T
C236        C237   1.207       .  T
C237        C238   1.415       .  S
C238        C239   1.208       .  T
C240        C241   1.210       .  T
C241        C242   1.419       .  S
C242        C243   1.210       .  T
C244        C245   1.204       .  T
C245        C246   1.410       .  S
C246        C247   1.205       .  T
C248        C249   1.211       .  T
C249        C250   1.421       .  S
C250        C251   1.212       .  T
C252        C253   1.210       .  T
C253        C254   1.418       .  S
C254        C255   1.210       .  T
