geometry optimzed in LAMMPS
_audit_creation_date              2020-12-01 
_audit_creation_method            'lammps2cif' 
_symmetry_space_group_name_H-M    'P1' 
_symmetry_Int_Tables_number       1 
_symmetry_cell_setting            triclinic 
loop_ 
_symmetry_equiv_pos_as_xyz 
  x,y,z 
_cell_length_a                    21.99056872 
_cell_length_b                    21.9702518123621 
_cell_length_c                    35.216853990478626 
_cell_angle_alpha                 90.67554863251895 
_cell_angle_beta                  88.5326127316544 
_cell_angle_gamma                 89.5759127021653 
loop_ 
_atom_site_label 
_atom_site_type_symbol 
_atom_site_fract_x 
_atom_site_fract_y 
_atom_site_fract_z 
_atom_site_charge 
N1          N  0.58904788  0.40187380  0.46701495    -0.00100
C2          C  0.65500504  0.42138384  0.04794278     0.02500
C3          C  0.66802040  0.38122684  0.07653460    -0.20400
C4          C  0.62158418  0.33971495  0.07785738    -0.20600
C5          C  0.58160724  0.35581418  0.05005602     0.02400
H6          H  0.71006607  0.37813927  0.09175675     0.16200
H7          H  0.62077852  0.29839212  0.09430502     0.16200
N8          N  0.01007029  0.89638890  0.21265495    -0.00100
C9          C  0.95658136  0.91051605  0.19645071     0.02500
C10         C  0.94624256  0.87104427  0.16657418    -0.20400
C11         C  0.99413240  0.83048906  0.16497438    -0.20600
C12         C  0.03227135  0.84631602  0.19396633     0.02400
H13         H  0.90477813  0.86722025  0.15081938     0.16200
H14         H  0.99652256  0.78924876  0.14784391     0.16200
N15         N  0.48556539  0.51241402  0.53504701    -0.00100
C16         C  0.50679212  0.56209847  0.55345502     0.02500
C17         C  0.46978479  0.57553027  0.58473836    -0.20400
C18         C  0.42343214  0.53386963  0.58483627    -0.20600
C19         C  0.43355313  0.49620048  0.55363053     0.02400
H20         H  0.47145925  0.61604026  0.60247672     0.16200
H21         H  0.38264773  0.53610910  0.60269830     0.16200
O22         O  0.46461539  0.97504035  0.25418453    -0.71900
O23         O  0.63819701  0.99312255  0.24823898    -0.71100
O24         O  0.54862750  0.98197364  0.19676845    -0.71100
O25         O  0.55345065  0.98530116  0.30579322    -0.71200
O26         O  0.56487468  0.88423616  0.30568038    -0.71100
O27         O  0.56212457  0.88117892  0.19687317    -0.71100
O28         O  0.64986861  0.89214725  0.24879924    -0.71100
O29         O  0.47544417  0.87396224  0.25375685    -0.71100
Ni30       Ni  0.55082621  0.98743809  0.25125915     1.25400
Ni31       Ni  0.56329452  0.87924155  0.25130202     1.25400
C32         C  0.44152167  0.92177489  0.25495627     0.91100
C33         C  0.67247702  0.94571034  0.24732772     0.91000
C34         C  0.55530769  0.93101673  0.17896267     0.91100
C35         C  0.56025700  0.93519901  0.32352726     0.91200
O36         O  0.49744389  0.86426319  0.50834539    -0.71100
O37         O  0.47473575  0.03791805  0.50438988    -0.71100
O38         O  0.47726386  0.94598122  0.45223056    -0.71100
O39         O  0.46601168  0.95796177  0.05805298    -0.71200
O40         O  0.56737250  0.96302408  0.05697442    -0.71100
O41         O  0.57777175  0.95440057  0.44422119    -0.71100
O42         O  0.57460792  0.04908593  0.49429487    -0.71100
O43         O  0.59786265  0.87588962  0.50171319    -0.71100
Ni44       Ni  0.48260351  0.95059806  0.50668367     1.25400
Ni45       Ni  0.58983990  0.96303446  0.49772493     1.25400
C46         C  0.55132220  0.84169605  0.50613796     0.91100
C47         C  0.52097328  0.07185823  0.49816334     0.91000
C48         C  0.52473884  0.94850661  0.43042513     0.91100
C49         C  0.51643543  0.95962468  0.07537534     0.91200
N50         N  0.10981204  0.01117704  0.27599012    -0.00100
C51         C  0.09147556  0.06541233  0.29152854     0.02500
C52         C  0.13169230  0.08378549  0.31877478    -0.20400
C53         C  0.17687356  0.04036032  0.31950439    -0.20600
C54         C  0.16284941  0.99666058  0.29274194     0.02400
H55         H  0.13169100  0.12719977  0.33364841     0.16200
H56         H  0.21849394  0.04348111  0.33515469     0.16200
O57         O  0.08998487  0.36139020  0.25502765    -0.71100
O58         O  0.12256121  0.53244124  0.24540268    -0.71100
O59         O  0.09510212  0.45717021  0.30435741    -0.71100
O60         O  0.11658278  0.43589422  0.19635702    -0.71200
O61         O  0.01773044  0.45545767  0.18945110    -0.71100
O62         O  0.99637275  0.47654469  0.29688411    -0.71100
O63         O  0.02353408  0.55055432  0.23827841    -0.71100
O64         O  0.99094261  0.37919246  0.24784359    -0.71100
Ni65       Ni  0.10961427  0.44610190  0.25059481     1.25400
Ni66       Ni  0.00360953  0.46589303  0.24290670     1.25400
C67         C  0.03539307  0.34212979  0.25265420     0.91100
C68         C  0.07835340  0.56946726  0.24008580     0.91000
C69         C  0.04220330  0.47093509  0.31824369     0.91100
C70         C  0.07053709  0.44284553  0.17523555     0.91200
O71         O  0.11998343  0.40935130  0.50495178    -0.71100
O72         O  0.94628480  0.42043311  0.49563784    -0.71100
O73         O  0.04331907  0.40606556  0.44634146    -0.71100
O74         O  0.05007865  0.41498367  0.05460906    -0.71200
O75         O  0.05670745  0.51575448  0.04843817    -0.71100
O76         O  0.04791647  0.50705335  0.44087173    -0.71100
O77         O  0.95232482  0.52139468  0.49069269    -0.71100
O78         O  0.12603986  0.51029326  0.49979185    -0.71100
Ni79       Ni  0.03312767  0.41116348  0.50042138     1.25400
Ni80       Ni  0.03925558  0.51933341  0.49499006     1.25400
C81         C  0.15138701  0.45815216  0.50409063     0.91100
C82         C  0.92085334  0.47266075  0.49177247     0.91000
C83         C  0.04936526  0.45350085  0.42592486     0.91100
C84         C  0.05359332  0.46844817  0.06924961     0.91200
C85         C  0.07797277  0.43620399  0.13381737    -0.13100
C86         C  0.05174429  0.47622830  0.11074400    -0.28200
H87         H  0.10587976  0.39911617  0.12217709     0.16000
H88         H  0.02879802  0.51633821  0.12268572     0.16500
C89         C  0.03344437  0.48144034  0.35942053    -0.13100
C90         C  0.05973682  0.44527916  0.38469374    -0.28200
H91         H  0.00163226  0.51673426  0.36912559     0.16000
H92         H  0.08638946  0.40609118  0.37479379     0.16500
C93         C  0.02476987  0.27729288  0.25540039    -0.15100
C94         C  0.02361111  0.22238078  0.25873244     0.08900
C95         C  0.03247184  0.15908929  0.26522446     0.10800
C96         C  0.05163172  0.10972554  0.27458380    -0.16000
C97         C  0.37600353  0.91658282  0.25780609    -0.15100
C98         C  0.32112552  0.91994866  0.26174549     0.08900
C99         C  0.25840736  0.93338536  0.26876585     0.10800
C100        C  0.20925207  0.95520421  0.27772407    -0.16000
C101        C  0.55660765  0.92952430  0.13711484    -0.13100
C102        C  0.51504058  0.95961740  0.11724718    -0.28200
H103        H  0.59053504  0.90107771  0.12242013     0.16000
H104        H  0.47758180  0.98295973  0.13212291     0.16500
C105        C  0.56596245  0.93621232  0.36501895    -0.13100
C106        C  0.51795004  0.94573536  0.38874276    -0.28200
H107        H  0.61067882  0.92727574  0.37620547     0.16000
H108        H  0.47285278  0.95138751  0.37729119     0.16500
C109        C  0.54114499  0.61004517  0.53529510    -0.15100
C110        C  0.55603580  0.65965005  0.52385637     0.08900
C111        C  0.56141844  0.72220962  0.51461959     0.10800
C112        C  0.55935570  0.77662750  0.50951433    -0.16000
C113        C  0.21636677  0.45433637  0.50883551    -0.15100
C114        C  0.27037225  0.45256143  0.51475846     0.08900
C115        C  0.33262507  0.45547845  0.52444923     0.10800
C116        C  0.38285142  0.46672087  0.53583587    -0.16000
C117        C  0.04414825  0.93605278  0.23564435    -0.09900
C118        C  0.07478039  0.97160903  0.25350619    -0.11500
C119        C  0.90595195  0.94130237  0.21562900    -0.15100
C120        C  0.85518793  0.95310583  0.22783693     0.08900
C121        C  0.79217781  0.95569726  0.23787037     0.10800
C122        C  0.73769390  0.95262180  0.24353434    -0.16000
C123        C  0.08989138  0.63370835  0.23556547    -0.15100
C124        C  0.09299604  0.68797634  0.23014322     0.08900
C125        C  0.08682394  0.75063921  0.22130001     0.10800
C126        C  0.06988664  0.80004288  0.21071558    -0.16000
C127        C  0.55274269  0.43980938  0.49123152    -0.09900
C128        C  0.52074476  0.47401195  0.51048418    -0.11500
C129        C  0.68892859  0.45429258  0.46551395    -0.15100
C130        C  0.73853774  0.47036055  0.47566752     0.08900
C131        C  0.80117292  0.47695640  0.48363820     0.10800
C132        C  0.85561238  0.47655929  0.48814309    -0.16000
C133        C  0.51291651  0.13688622  0.49466354    -0.15100
C134        C  0.51154419  0.19128978  0.48945139     0.08900
C135        C  0.51845575  0.25367942  0.48017079     0.10800
C136        C  0.53499953  0.30275959  0.46871779    -0.16000
N137        N  0.60125516  0.40670266  0.03226676    -0.00100
C138        C  0.64149302  0.41819876  0.44892769     0.02500
C139        C  0.65555505  0.37722527  0.41996204    -0.20400
C140        C  0.61117737  0.33350975  0.42090534    -0.20600
C141        C  0.57132687  0.34912081  0.45041109     0.02400
H142        H  0.69736889  0.37510240  0.40307001     0.16200
H143        H  0.61215021  0.29114824  0.40487051     0.16200
N144        N  0.99753016  0.90328699  0.71683269    -0.00100
C145        C  0.94454806  0.91935293  0.70065520     0.02500
C146        C  0.93295766  0.88060207  0.67062384    -0.20400
C147        C  0.97948216  0.83853983  0.66885022    -0.20600
C148        C  0.01811368  0.85279917  0.69787493     0.02400
H149        H  0.89139138  0.87832610  0.65485567     0.16200
H150        H  0.98061401  0.79751520  0.65149673     0.16200
N151        N  0.49605667  0.51040277  0.96603542    -0.00100
C152        C  0.51145366  0.56286201  0.94850481     0.02500
C153        C  0.47458491  0.57179043  0.91786881    -0.20400
C154        C  0.43419061  0.52438316  0.91738594    -0.20600
C155        C  0.44768070  0.48783865  0.94768239     0.02400
H156        H  0.47140737  0.61269316  0.90115657     0.16200
H157        H  0.39410708  0.52182652  0.90022882     0.16200
O158        O  0.45242920  0.98065016  0.75600098    -0.71900
O159        O  0.62568972  0.00108157  0.74934779    -0.71100
O160        O  0.53613855  0.98801571  0.69803142    -0.71100
O161        O  0.54169011  0.99278597  0.80723026    -0.71200
O162        O  0.55895570  0.89255550  0.80727764    -0.71100
O163        O  0.54365202  0.88670973  0.69918368    -0.71100
O164        O  0.63809715  0.90017904  0.74747851    -0.71100
O165        O  0.46459199  0.87991049  0.75905378    -0.71100
Ni166      Ni  0.53859153  0.99425555  0.75262102     1.25400
Ni167      Ni  0.55185235  0.88624054  0.75324850     1.25400
C168        C  0.43008670  0.92720952  0.75896483     0.91100
C169        C  0.66028644  0.95400461  0.74712849     0.91000
C170        C  0.53742286  0.93619658  0.68082479     0.91100
C171        C  0.55195541  0.94333257  0.82507418     0.91200
O172        O  0.47347437  0.87415627  0.00006826    -0.71100
O173        O  0.45996623  0.04912677  0.00734745    -0.71100
O174        O  0.46636572  0.96689765  0.94944486    -0.71100
O175        O  0.49540435  0.95603261  0.56049872    -0.71200
O176        O  0.59497017  0.97143074  0.55185019    -0.71100
O177        O  0.56773834  0.97175623  0.94795868    -0.71100
O178        O  0.56128099  0.05493413  0.00602735    -0.71100
O179        O  0.57471258  0.88100248  0.99895587    -0.71100
Ni180      Ni  0.46283210  0.96158720  0.00376663     1.25400
Ni181      Ni  0.57134662  0.96799615  0.00244207     1.25400
C182        C  0.52641967  0.84907083  0.99817458     0.91100
C183        C  0.50876447  0.08057633  0.00798603     0.91000
C184        C  0.51693566  0.97081144  0.93085915     0.91100
C185        C  0.54817565  0.96598272  0.57387875     0.91200
N186        N  0.09958443  0.01190238  0.78281411    -0.00100
C187        C  0.08209306  0.06555336  0.79946275     0.02500
C188        C  0.12080912  0.08010457  0.82839749    -0.20400
C189        C  0.16422909  0.03484699  0.82901964    -0.20600
C190        C  0.15073182  0.99396207  0.80046941     0.02400
H191        H  0.12146957  0.12236923  0.84449815     0.16200
H192        H  0.20492653  0.03533647  0.84568010     0.16200
O193        O  0.08305945  0.36497176  0.75257551    -0.71100
O194        O  0.11001463  0.53679583  0.74211061    -0.71100
O195        O  0.09454256  0.45989552  0.80163439    -0.71100
O196        O  0.09759643  0.44114634  0.69309805    -0.71200
O197        O  0.99754381  0.45897061  0.69258836    -0.71100
O198        O  0.99433163  0.47686420  0.80089151    -0.71100
O199        O  0.00972590  0.55306684  0.74182198    -0.71100
O200        O  0.98272933  0.38063853  0.75191720    -0.71100
Ni201      Ni  0.09988139  0.45015287  0.74735533     1.25400
Ni202      Ni  0.99247466  0.46776991  0.74679211     1.25400
C203        C  0.02869153  0.34456991  0.75404911     0.91100
C204        C  0.06431117  0.57307032  0.74030271     0.91000
C205        C  0.04380468  0.47181993  0.81894735     0.91100
C206        C  0.04817648  0.44773913  0.67505348     0.91200
O207        O  0.13492965  0.39690098  0.99863601    -0.71100
O208        O  0.96089133  0.41460091  0.00253061    -0.71100
O209        O  0.04729744  0.39644764  0.94635123    -0.71100
O210        O  0.02484382  0.42287872  0.55421054    -0.71200
O211        O  0.02977205  0.52395059  0.54943591    -0.71100
O212        O  0.05584789  0.49700897  0.94015045    -0.71100
O213        O  0.96936249  0.51509092  0.99584248    -0.71100
O214        O  0.14367594  0.49756286  0.99288761    -0.71100
Ni215      Ni  0.04781137  0.40218311  0.00073631     1.25400
Ni216      Ni  0.05679041  0.50995810  0.99408711     1.25400
C217        C  0.16773323  0.44440308  0.99500925     0.91100
C218        C  0.93659762  0.46761765  0.00018649     0.91000
C219        C  0.05205026  0.44355576  0.92545374     0.91100
C220        C  0.02527665  0.47593121  0.56961299     0.91200
C221        C  0.04991037  0.44175777  0.63341238    -0.13100
C222        C  0.02121962  0.48166238  0.61131305    -0.28200
H223        H  0.07864458  0.40631804  0.62052727     0.16000
H224        H  0.99780645  0.52091970  0.62399277     0.16500
C225        C  0.04203658  0.48106302  0.86029321    -0.13100
C226        C  0.05442958  0.43536683  0.88382154    -0.28200
H227        H  0.02667331  0.52495383  0.87153025     0.16000
H228        H  0.06511923  0.39038634  0.87218397     0.16500
C229        C  0.02002705  0.27968888  0.75864413    -0.15100
C230        C  0.01987939  0.22513021  0.76379334     0.08900
C231        C  0.02851807  0.16233963  0.77207034     0.10800
C232        C  0.04583562  0.11271647  0.78227252    -0.16000
C233        C  0.36478935  0.92102377  0.76267389    -0.15100
C234        C  0.30995033  0.92261037  0.76707896     0.08900
C235        C  0.24701762  0.93379198  0.77470541     0.10800
C236        C  0.19754109  0.95400159  0.78439475    -0.16000
C237        C  0.52954665  0.93238002  0.63938063    -0.13100
C238        C  0.55556558  0.97184503  0.61528859    -0.28200
H239        H  0.50441707  0.89402737  0.62817161     0.16000
H240        H  0.58602030  0.00643125  0.62594905     0.16500
C241        C  0.55630649  0.94409913  0.86677862    -0.13100
C242        C  0.51587357  0.97455824  0.88909176    -0.28200
H243        H  0.58988592  0.91468075  0.87951977     0.16000
H244        H  0.47819222  0.99847667  0.87638169     0.16500
C245        C  0.53660676  0.61512360  0.96759769    -0.15100
C246        C  0.54264067  0.66657386  0.97947615     0.08900
C247        C  0.53884380  0.72951813  0.98895759     0.10800
C248        C  0.53242698  0.78376734  0.99430526    -0.16000
C249        C  0.23294643  0.43777114  0.99229281    -0.15100
C250        C  0.28750623  0.43482066  0.98738317     0.08900
C251        C  0.35032107  0.43866805  0.97784849     0.10800
C252        C  0.40008212  0.45305148  0.96589719    -0.16000
C253        C  0.03248726  0.94101432  0.74053724    -0.09900
C254        C  0.06392742  0.97473274  0.75918928    -0.11500
C255        C  0.89474210  0.95138135  0.71981425    -0.15100
C256        C  0.84362148  0.96358566  0.73115785     0.08900
C257        C  0.78008156  0.96567625  0.73950843     0.10800
C258        C  0.72542292  0.96173960  0.74384263    -0.16000
C259        C  0.07401981  0.63768934  0.73616043    -0.15100
C260        C  0.07679720  0.69217073  0.73151796     0.08900
C261        C  0.07114118  0.75527550  0.72379695     0.10800
C262        C  0.05493002  0.80537936  0.71405560    -0.16000
C263        C  0.56612744  0.44402348  0.00869526    -0.09900
C264        C  0.53362041  0.47625740  0.98997325    -0.11500
C265        C  0.70335000  0.45539536  0.02961001    -0.15100
C266        C  0.75346866  0.47003865  0.01812867     0.08900
C267        C  0.81647221  0.47540775  0.00877872     0.10800
C268        C  0.87115657  0.47385331  0.00352946    -0.16000
C269        C  0.50514480  0.14607887  0.01160452    -0.15100
C270        C  0.50799817  0.20067681  0.01629772     0.08900
C271        C  0.52018784  0.26283488  0.02437219     0.10800
C272        C  0.54110386  0.31111508  0.03428353    -0.16000
loop_ 
_geom_bond_atom_site_label_1 
_geom_bond_atom_site_label_2 
_geom_bond_distance 
_geom_bond_site_symmetry_2 
_ccdc_geom_bond_type 
N1          C127   1.413       .  S
N1          C141   1.356       .  A
N1          C138   1.356       .  A
C2          N137   1.357       .  A
C2            C3   1.381       .  A
C2          C265   1.447       .  S
C3            C4   1.374       .  A
C3            H6   1.083       .  S
C4            C5   1.380       .  A
C4            H7   1.083       .  S
C5          N137   1.356       .  A
C5          C272   1.446       .  S
N8          C117   1.414       .  S
N8           C12   1.357       .  A
N8            C9   1.356   1_455  A
C9           C10   1.380       .  A
C9          C119   1.447       .  S
C10          C11   1.374       .  A
C10          H13   1.083       .  S
C11          C12   1.381   1_655  A
C11          H14   1.083       .  S
C12         C126   1.447       .  S
N15         C128   1.413       .  S
N15          C19   1.355       .  A
N15          C16   1.355       .  A
C16          C17   1.381       .  A
C16         C109   1.446       .  S
C17          C18   1.375       .  A
C17          H20   1.083       .  S
C18          C19   1.380       .  A
C18          H21   1.083       .  S
C19         C116   1.446       .  S
O22         Ni30   1.918       .  S
O22          C32   1.279       .  A
O23         Ni30   1.927       .  S
O23          C33   1.281       .  A
O24         Ni30   1.923       .  S
O24          C34   1.282       .  A
O25         Ni30   1.924       .  S
O25          C35   1.282       .  A
O26         Ni31   1.918       .  S
O26          C35   1.280       .  A
O27         Ni31   1.919       .  S
O27          C34   1.280       .  A
O28         Ni31   1.927       .  S
O28          C33   1.282       .  A
O29         Ni31   1.936       .  S
O29          C32   1.284       .  A
Ni30        Ni31   2.391       .  S
C32          C97   1.447       .  S
C33         C122   1.446       .  S
C34         C101   1.473       .  S
C35         C105   1.470       .  S
O36         Ni44   1.924       .  S
O36          C46   1.281       .  A
O37         Ni44   1.928   1_545  S
O37          C47   1.281       .  A
O38         Ni44   1.926       .  S
O38          C48   1.282       .  A
O39        Ni180   1.917       .  S
O39          C49   1.280       .  A
O40        Ni181   1.925       .  S
O40          C49   1.283       .  A
O41         Ni45   1.917       .  S
O41          C48   1.282       .  A
O42         Ni45   1.923   1_545  S
O42          C47   1.281       .  A
O43         Ni45   1.929       .  S
O43          C46   1.281       .  A
Ni44        O175   1.926       .  S
Ni44        Ni45   2.389       .  S
Ni45        O176   1.919       .  S
C46         C112   1.446       .  S
C47         C133   1.445       .  S
C48         C106   1.480       .  S
C49         C102   1.474       .  S
N50         C118   1.415   1_545  S
N50          C54   1.358   1_545  A
N50          C51   1.359       .  A
C51          C52   1.380       .  A
C51          C96   1.449       .  S
C52          C53   1.373       .  A
C52          H55   1.083       .  S
C53          C54   1.380   1_545  A
C53          H56   1.083       .  S
C54         C100   1.448       .  S
O57         Ni65   1.921       .  S
O57          C67   1.280       .  A
O58         Ni65   1.930       .  S
O58          C68   1.282       .  A
O59         Ni65   1.924       .  S
O59          C69   1.283       .  A
O60         Ni65   1.923       .  S
O60          C70   1.281       .  A
O61         Ni66   1.911       .  S
O61          C70   1.280       .  A
O62         Ni66   1.915   1_655  S
O62          C69   1.279   1_655  A
O63         Ni66   1.922       .  S
O63          C68   1.281       .  A
O64         Ni66   1.936   1_655  S
O64          C67   1.283   1_655  A
Ni65        Ni66   2.391       .  S
C67          C93   1.449       .  S
C68         C123   1.446       .  S
C69          C89   1.473       .  S
C70          C85   1.469       .  S
O71         Ni79   1.921       .  S
O71          C81   1.280       .  A
O72         Ni79   1.931   1_655  S
O72          C82   1.283       .  A
O73         Ni79   1.914       .  S
O73          C83   1.279       .  A
O74        Ni215   1.917       .  S
O74          C84   1.281       .  A
O75        Ni216   1.917   1_554  S
O75          C84   1.280       .  A
O76         Ni80   1.926       .  S
O76          C83   1.283       .  A
O77         Ni80   1.922   1_655  S
O77          C82   1.280       .  A
O78         Ni80   1.929       .  S
O78          C81   1.283       .  A
Ni79        O210   1.913       .  S
Ni79        Ni80   2.391       .  S
Ni80        O211   1.925       .  S
C81         C113   1.445       .  S
C82         C132   1.446       .  S
C83          C90   1.473       .  S
C84          C86   1.469       .  S
C85          C86   1.341       .  D
C85          H87   1.086       .  S
C86          H88   1.087       .  S
C89          C90   1.339       .  D
C89          H91   1.087       .  S
C90          H92   1.087       .  S
C93          C94   1.214       .  T
C94          C95   1.425       .  S
C95          C96   1.213       .  T
C97          C98   1.213       .  T
C98          C99   1.423       .  S
C99         C100   1.212       .  T
C101        C102   1.340       .  D
C101        H103   1.087       .  S
C102        H104   1.087       .  S
C105        C106   1.343       .  D
C105        H107   1.086       .  S
C106        H108   1.087       .  S
C109        C110   1.211       .  T
C110        C111   1.421       .  S
C111        C112   1.212       .  T
C113        C114   1.211       .  T
C114        C115   1.421       .  S
C115        C116   1.211       .  T
C117        C118   1.216       .  T
C119        C120   1.211       .  T
C120        C121   1.422       .  S
C121        C122   1.212       .  T
C123        C124   1.212       .  T
C124        C125   1.421       .  S
C125        C126   1.211       .  T
C127        C128   1.215       .  T
C129        C138   1.446       .  S
C129        C130   1.211       .  T
C130        C131   1.421       .  S
C131        C132   1.212       .  T
C133        C134   1.212       .  T
C134        C135   1.421       .  S
C135        C136   1.211       .  T
C136        C141   1.447       .  S
N137        C263   1.413       .  S
C138        C139   1.380       .  A
C139        C140   1.374       .  A
C139        H142   1.083       .  S
C140        C141   1.381       .  A
C140        H143   1.083       .  S
N144        C253   1.415   1_655  S
N144        C148   1.357   1_655  A
N144        C145   1.356       .  A
C145        C146   1.380       .  A
C145        C255   1.446       .  S
C146        C147   1.373       .  A
C146        H149   1.083       .  S
C147        C148   1.380   1_655  A
C147        H150   1.083       .  S
C148        C262   1.446       .  S
N151        C264   1.413       .  S
N151        C155   1.353       .  A
N151        C152   1.355       .  A
C152        C153   1.381       .  A
C152        C245   1.445       .  S
C153        C154   1.374       .  A
C153        H156   1.083       .  S
C154        C155   1.380       .  A
C154        H157   1.083       .  S
C155        C252   1.442       .  S
O158       Ni166   1.921       .  S
O158        C168   1.280       .  A
O159       Ni166   1.923   1_545  S
O159        C169   1.280   1_545  A
O160       Ni166   1.928       .  S
O160        C170   1.283       .  A
O161       Ni166   1.927       .  S
O161        C171   1.283       .  A
O162       Ni167   1.917       .  S
O162        C171   1.279       .  A
O163       Ni167   1.917       .  S
O163        C170   1.280       .  A
O164       Ni167   1.929       .  S
O164        C169   1.283       .  A
O165       Ni167   1.931       .  S
O165        C168   1.282       .  A
Ni166      Ni167   2.389       .  S
C168        C233   1.446       .  S
C169        C258   1.446       .  S
C170        C237   1.476       .  S
C171        C241   1.474       .  S
O172       Ni180   1.936       .  S
O172        C182   1.284   1_554  A
O173       Ni180   1.926   1_545  S
O173        C183   1.281       .  A
O174       Ni180   1.918   1_556  S
O174        C184   1.280       .  A
O175        C185   1.283       .  A
O176        C185   1.280       .  A
O177       Ni181   1.925   1_556  S
O177        C184   1.283       .  A
O178       Ni181   1.923   1_545  S
O178        C183   1.281       .  A
O179       Ni181   1.915   1_556  S
O179        C182   1.278       .  A
Ni180      Ni181   2.391       .  S
C182        C248   1.444       .  S
C183        C269   1.445       .  S
C184        C242   1.475       .  S
C185        C238   1.476       .  S
N186        C254   1.414   1_545  S
N186        C190   1.357   1_545  A
N186        C187   1.359       .  A
C187        C188   1.381       .  A
C187        C232   1.450       .  S
C188        C189   1.374       .  A
C188        H191   1.083       .  S
C189        C190   1.380   1_545  A
C189        H192   1.083       .  S
C190        C236   1.448       .  S
O193       Ni201   1.920       .  S
O193        C203   1.280       .  A
O194       Ni201   1.929       .  S
O194        C204   1.281       .  A
O195       Ni201   1.921       .  S
O195        C205   1.282       .  A
O196       Ni201   1.921       .  S
O196        C206   1.281       .  A
O197       Ni202   1.917       .  S
O197        C206   1.280   1_655  A
O198       Ni202   1.915       .  S
O198        C205   1.279   1_655  A
O199       Ni202   1.924   1_455  S
O199        C204   1.281       .  A
O200       Ni202   1.938       .  S
O200        C203   1.284   1_655  A
Ni201      Ni202   2.391   1_455  S
C203        C229   1.450       .  S
C204        C259   1.446       .  S
C205        C225   1.467       .  S
C206        C221   1.470       .  S
O207       Ni215   1.918   1_556  S
O207        C217   1.279       .  A
O208       Ni215   1.928   1_655  S
O208        C218   1.282       .  A
O209       Ni215   1.918   1_556  S
O209        C219   1.280       .  A
O210        C220   1.280       .  A
O211        C220   1.282       .  A
O212       Ni216   1.918       .  S
O212        C219   1.282       .  A
O213       Ni216   1.924   1_655  S
O213        C218   1.280   1_556  A
O214       Ni216   1.927       .  S
O214        C217   1.282       .  A
Ni215      Ni216   2.391   1_554  S
C217        C249   1.441       .  S
C218        C268   1.446       .  S
C219        C226   1.475       .  S
C220        C222   1.473       .  S
C221        C222   1.344       .  D
C221        H223   1.087       .  S
C222        H224   1.087   1_455  S
C225        C226   1.340       .  D
C225        H227   1.086       .  S
C226        H228   1.087       .  S
C229        C230   1.214       .  T
C230        C231   1.426       .  S
C231        C232   1.214       .  T
C233        C234   1.212       .  T
C234        C235   1.422       .  S
C235        C236   1.211       .  T
C237        C238   1.341       .  D
C237        H239   1.087       .  S
C238        H240   1.087   1_565  S
C241        C242   1.341       .  D
C241        H243   1.087       .  S
C242        H244   1.087       .  S
C245        C246   1.210       .  T
C246        C247   1.420       .  S
C247        C248   1.211       .  T
C249        C250   1.209       .  T
C250        C251   1.417       .  S
C251        C252   1.208       .  T
C253        C254   1.216       .  T
C255        C256   1.210       .  T
C256        C257   1.421       .  S
C257        C258   1.212       .  T
C259        C260   1.212       .  T
C260        C261   1.421       .  S
C261        C262   1.211       .  T
C263        C264   1.214   1_554  T
C265        C266   1.211       .  T
C266        C267   1.422       .  S
C267        C268   1.212       .  T
C269        C270   1.211       .  T
C270        C271   1.421       .  S
C271        C272   1.210       .  T
