geometry optimzed in LAMMPS
_audit_creation_date              2020-12-01 
_audit_creation_method            'lammps2cif' 
_symmetry_space_group_name_H-M    'P1' 
_symmetry_Int_Tables_number       1 
_symmetry_cell_setting            triclinic 
loop_ 
_symmetry_equiv_pos_as_xyz 
  x,y,z 
_cell_length_a                    32.53310006 
_cell_length_b                    32.44298352722526 
_cell_length_c                    57.09333161337253 
_cell_angle_alpha                 89.97684960590387 
_cell_angle_beta                  89.99349874857866 
_cell_angle_gamma                 89.89881928989882 
loop_ 
_atom_site_label 
_atom_site_type_symbol 
_atom_site_fract_x 
_atom_site_fract_y 
_atom_site_fract_z 
_atom_site_charge 
N1          N  0.50161277  0.55638181  0.67121162    -0.27000
N2          N  0.49919394  0.57925689  0.65212102    -0.34900
C3          C  0.49701364  0.61925617  0.65844366     0.01300
C4          C  0.49848748  0.62166767  0.68273335     0.07400
C5          C  0.50134429  0.58100060  0.69011842    -0.05700
H6          H  0.49450567  0.64462054  0.64622761     0.08000
H7          H  0.50198624  0.56980718  0.70795317     0.09200
Cu8        Cu  0.49852581  0.55371954  0.61858445     0.44200
Cu9        Cu  0.50288902  0.49256243  0.67086106     0.42000
Cu10       Cu  0.49463459  0.44084066  0.61479282     0.43900
N11         N  0.49721176  0.52085440  0.58715231    -0.34400
N12         N  0.49440097  0.48019798  0.58574407    -0.28600
C13         C  0.49277874  0.46930769  0.56297125    -0.04700
C14         C  0.49523944  0.50464313  0.54947136     0.07500
C15         C  0.49815561  0.53670341  0.56532892     0.01300
H16         H  0.49063984  0.43792944  0.55669621     0.08900
H17         H  0.50026883  0.56921974  0.56131858     0.08000
N18         N  0.49788050  0.40972507  0.64684028    -0.35800
N19         N  0.50086750  0.42911104  0.66711730    -0.28000
C20         C  0.50291933  0.40126344  0.68447847    -0.03300
C21         C  0.50119690  0.36201788  0.67489041     0.05300
C22         C  0.49812564  0.36874792  0.65086621     0.03400
H23         H  0.50644018  0.40934849  0.70273531     0.08500
H24         H  0.49653105  0.34567857  0.63723006     0.07400
N25         N  0.43164151  0.50775709  0.40368228    -0.27000
N26         N  0.41138477  0.50088303  0.42336141    -0.34900
C27         C  0.37115823  0.49635219  0.41833199     0.01300
C28         C  0.36573828  0.50088447  0.39430795     0.07400
C29         C  0.40496600  0.50800235  0.38569213    -0.05700
H30         H  0.34760901  0.49063804  0.43129528     0.08000
H31         H  0.41378856  0.51241600  0.36760684     0.09200
Cu32       Cu  0.43991217  0.49949287  0.45614278     0.44200
Cu33       Cu  0.49482339  0.51606239  0.40190701     0.42000
Cu34       Cu  0.54996562  0.52356510  0.45655271     0.43900
N35         N  0.47519625  0.50480995  0.48658089    -0.34400
N36         N  0.51453163  0.51529635  0.48677685    -0.28600
C37         C  0.52744707  0.51754788  0.50918363    -0.04700
C38         C  0.49493175  0.50747679  0.52370581     0.07500
C39         C  0.46237319  0.49944884  0.50882999     0.01300
H40         H  0.55847888  0.52498625  0.51448592     0.08900
H41         H  0.43152093  0.49068840  0.51381457     0.08000
N42         N  0.57865065  0.52601811  0.42378209    -0.35800
N43         N  0.55818938  0.52275097  0.40387879    -0.28000
C44         C  0.58480486  0.52470965  0.38588739    -0.03300
C45         C  0.62425862  0.52955027  0.39471785     0.05300
C46         C  0.61897921  0.53032936  0.41890271     0.03400
H47         H  0.57576660  0.52346936  0.36767637     0.08500
H48         H  0.64266405  0.53360636  0.43205625     0.07400
N49         N  0.41135774  0.87172360  0.80396011    -0.03200
C50         C  0.38115006  0.87190394  0.82058536    -0.00600
C51         C  0.36961752  0.83225174  0.82633777    -0.23500
C52         C  0.39272431  0.80638567  0.81287848    -0.23700
C53         C  0.41776869  0.83095743  0.79925360    -0.00700
H54         H  0.34548786  0.82323144  0.83834144     0.13100
H55         H  0.39045065  0.77311179  0.81240031     0.13100
N56         N  0.61802931  0.09498711  0.77289847    -0.03200
C57         C  0.61551950  0.12564102  0.75657191    -0.00600
C58         C  0.65393651  0.14151363  0.75172458    -0.23500
C59         C  0.68133109  0.12049792  0.76539173    -0.23700
C60         C  0.65885835  0.09243287  0.77824860    -0.00700
H61         H  0.66097634  0.16698331  0.74015185     0.13100
H62         H  0.71406652  0.12607173  0.76651522     0.13100
N63         N  0.00004098  0.07760782  0.16803736    -0.27000
N64         N  0.99726824  0.09755498  0.14788246    -0.34900
C65         C  0.99896034  0.13835904  0.15202561     0.01300
C66         C  0.00274823  0.14466419  0.17596259     0.07400
C67         C  0.00314291  0.10531317  0.18552398    -0.05700
H68         H  0.99822878  0.16167256  0.13848223     0.08000
H69         H  0.00728870  0.09728418  0.20376049     0.09200
Cu70       Cu  0.99386160  0.06883238  0.11528953     0.44200
Cu71       Cu  0.00311735  0.01349400  0.17077841     0.42000
Cu72       Cu  0.00531419  0.95817889  0.11575411     0.43900
N73         N  0.99519054  0.03306829  0.08498328    -0.34400
N74         N  0.00083467  0.99268054  0.08524751    -0.28600
C75         C  0.00279626  0.97878825  0.06306561    -0.04700
C76         C  0.99756608  0.01191752  0.04816501     0.07500
C77         C  0.99277215  0.04585517  0.06256532     0.01300
H78         H  0.00760122  0.94693282  0.05817165     0.08900
H79         H  0.98894909  0.07759206  0.05715851     0.08000
N80         N  0.00719398  0.92937962  0.14819636    -0.35800
N81         N  0.00664630  0.94937250  0.16835217    -0.28000
C82         C  0.00609126  0.92168723  0.18593599    -0.03300
C83         C  0.00598207  0.88221714  0.17643210     0.05300
C84         C  0.00678523  0.88858325  0.15239181     0.03400
H85         H  0.00384268  0.92986560  0.20424523     0.08500
H86         H  0.00591527  0.86541223  0.13879665     0.07400
N87         N  0.94177091  0.00675459  0.90177507    -0.27000
N88         N  0.92058062  0.01468657  0.92100533    -0.34900
C89         C  0.88069296  0.01980065  0.91526984     0.01300
C90         C  0.87642553  0.01462860  0.89122811     0.07400
C91         C  0.91601717  0.00644279  0.88336908    -0.05700
H92         H  0.85663702  0.02663555  0.92775811     0.08000
H93         H  0.92581373  0.00151813  0.86549416     0.09200
Cu94       Cu  0.94740366  0.01755204  0.95411839     0.44200
Cu95       Cu  0.00512958  0.99830945  0.90097758     0.42000
Cu96       Cu  0.05816501  0.00046921  0.95645776     0.43900
N97         N  0.98110949  0.01415725  0.98510747    -0.34400
N98         N  0.02103677  0.00634230  0.98594164    -0.28600
C99         C  0.03287620  0.00402957  0.00850361    -0.04700
C100        C  0.99895869  0.01136819  0.02245910     0.07500
C101        C  0.96669088  0.01773205  0.00713504     0.01300
H102        H  0.06397200  0.99802057  0.01430010     0.08900
H103        H  0.93495984  0.02379882  0.01164560     0.08000
N104        N  0.08814237  0.99578395  0.92438899    -0.35800
N105        N  0.06867808  0.99447204  0.90410308    -0.28000
C106        C  0.09640734  0.98990707  0.88680708    -0.03300
C107        C  0.13548449  0.98821188  0.89659147     0.05300
C108        C  0.12879045  0.99219791  0.92053540     0.03400
H109        H  0.08836452  0.98700354  0.86850883     0.08500
H110        H  0.15156299  0.99185946  0.93431965     0.07400
N111        N  0.11093425  0.41404257  0.27664380    -0.03200
C112        C  0.14908532  0.41762005  0.28630052    -0.00600
C113        C  0.17529409  0.38785150  0.27755456    -0.23500
C114        C  0.15303872  0.36493093  0.26201676    -0.23700
C115        C  0.11391946  0.38142308  0.26171961    -0.00700
H116        H  0.20715644  0.38302993  0.28230491     0.13100
H117        H  0.16380965  0.33821983  0.25244323     0.13100
N118        N  0.88438102  0.62380709  0.28080002    -0.03200
C119        C  0.88572317  0.65935686  0.26815829    -0.00600
C120        C  0.85016949  0.68196480  0.27125530    -0.23500
C121        C  0.82581264  0.65985602  0.28620959    -0.23700
C122        C  0.84733158  0.62453176  0.29191889    -0.00700
H123        H  0.84320810  0.71188474  0.26384039     0.13100
H124        H  0.79566677  0.66870534  0.29248652     0.13100
C125        C  0.07685286  0.44262465  0.27847601    -0.01000
C126        C  0.06396008  0.45800690  0.30019382    -0.09000
C127        C  0.03187537  0.48679616  0.30172674    -0.17900
C128        C  0.01142697  0.50124989  0.28140757     0.04500
C129        C  0.02452023  0.48530349  0.25942879     0.18700
C130        C  0.05672048  0.45639064  0.25820003    -0.19300
C131        C  0.00576877  0.49864862  0.23870199    -0.20600
C132        C  0.97457632  0.52797841  0.23922985    -0.19100
C133        C  0.96102937  0.54452508  0.26051384     0.20100
C134        C  0.97883012  0.53113191  0.28198245     0.02200
C135        C  0.96321844  0.54842381  0.30297778    -0.13800
C136        C  0.93188820  0.57815458  0.30255710    -0.11500
C137        C  0.91525485  0.59179388  0.28132539     0.01800
C138        C  0.92980123  0.57458889  0.26040319    -0.23700
H139        H  0.07834651  0.44741504  0.31613982     0.09800
H140        H  0.02389170  0.49727353  0.31903994     0.13300
H141        H  0.06691029  0.44525872  0.24128009     0.12100
H142        H  0.01555303  0.48655699  0.22190504     0.13300
H143        H  0.96100898  0.53789928  0.22282417     0.12300
H144        H  0.97470080  0.53973629  0.31997314     0.09400
H145        H  0.92126019  0.59129037  0.31888554     0.12600
H146        H  0.91645093  0.58453255  0.24396639     0.14500
C147        C  0.08045461  0.36074308  0.24888720    -0.01000
C148        C  0.05420910  0.33409156  0.26096960    -0.09000
C149        C  0.03457506  0.30172449  0.24922646    -0.17900
C150        C  0.04126183  0.29496952  0.22500209     0.04500
C151        C  0.06431411  0.32502560  0.21251981     0.18700
C152        C  0.08358679  0.35742550  0.22452786    -0.19300
C153        C  0.07058147  0.32092422  0.18839667    -0.20600
C154        C  0.05642344  0.28637195  0.17653511    -0.19100
C155        C  0.03642405  0.25464092  0.18859461     0.20100
C156        C  0.02803961  0.25858821  0.21294975     0.02200
C157        C  0.00911375  0.22485805  0.22437354    -0.13800
C158        C  0.00039645  0.18833839  0.21229300    -0.11500
C159        C  0.00933558  0.18442428  0.18837472     0.01800
C160        C  0.02642044  0.21821075  0.17656096    -0.23700
H161        H  0.05176775  0.33605389  0.27986242     0.09800
H162        H  0.01600577  0.28138104  0.25973950     0.13300
H163        H  0.10422687  0.37792970  0.21521343     0.12100
H164        H  0.08767972  0.34401509  0.17874771     0.13300
H165        H  0.06268463  0.28367881  0.15795374     0.12300
H166        H  0.00194191  0.22525652  0.24279834     0.09400
H167        H  0.98680063  0.16290414  0.22181074     0.12600
H168        H  0.03391714  0.21553383  0.15813503     0.14500
C169        C  0.00037087  0.84242509  0.18908566    -0.01000
C170        C  0.98732769  0.80702753  0.17710154    -0.09000
C171        C  0.97688024  0.77107615  0.18922630    -0.17900
C172        C  0.97881314  0.76934097  0.21395091     0.04500
C173        C  0.99474084  0.80430123  0.22590352     0.18700
C174        C  0.00553214  0.84012569  0.21345410    -0.19300
C175        C  0.99795003  0.80408898  0.25034693    -0.20600
C176        C  0.98297019  0.77111792  0.26333468    -0.19100
C177        C  0.96438205  0.73754949  0.25219998     0.20100
C178        C  0.96331874  0.73536386  0.22732481     0.02200
C179        C  0.94392850  0.70073621  0.21705266    -0.13800
C180        C  0.92240181  0.67234362  0.23082360    -0.11500
C181        C  0.92095504  0.67658831  0.25517629     0.01800
C182        C  0.94384163  0.70791165  0.26581305    -0.23700
H183        H  0.98351716  0.80736162  0.15828634     0.09800
H184        H  0.96619634  0.74560864  0.17878192     0.13300
H185        H  0.01662773  0.86676972  0.22295936     0.12100
H186        H  0.01063244  0.83035995  0.25956206     0.13300
H187        H  0.98426597  0.77275807  0.28227887     0.12300
H188        H  0.94244548  0.69625874  0.19838058     0.09400
H189        H  0.90404427  0.64896946  0.22224821     0.12600
H190        H  0.94190950  0.71178813  0.28465403     0.14500
C191        C  0.67866421  0.06722509  0.79670646    -0.01000
C192        C  0.67174937  0.07581303  0.82039899    -0.09000
C193        C  0.69985951  0.06259651  0.83750927    -0.17900
C194        C  0.73597299  0.04068576  0.83120237     0.04500
C195        C  0.74053096  0.02909292  0.80731541     0.18700
C196        C  0.71203891  0.04233277  0.79047012    -0.19300
C197        C  0.77489731  0.00657459  0.80001796    -0.20600
C198        C  0.80619951  0.99721626  0.81564791    -0.19100
C199        C  0.80413912  0.01050392  0.83891771     0.20100
C200        C  0.76869520  0.03162671  0.84727331     0.02200
C201        C  0.76865034  0.04434447  0.87099374    -0.13800
C202        C  0.80304985  0.03796444  0.88537761    -0.11500
C203        C  0.83851792  0.01854261  0.87670677     0.01800
C204        C  0.83815589  0.00395195  0.85359712    -0.23700
H205        H  0.64626295  0.09537991  0.82549504     0.09800
H206        H  0.69352055  0.07153279  0.85533207     0.13300
H207        H  0.71748075  0.03587698  0.77208634     0.12100
H208        H  0.77822795  0.99725257  0.78189090     0.13300
H209        H  0.83293492  0.98070382  0.80925324     0.12300
H210        H  0.74291203  0.06027775  0.87873120     0.09400
H211        H  0.80215378  0.04939344  0.90317189     0.12600
H212        H  0.86482444  0.98804317  0.84670221     0.14500
C213        C  0.17521064  0.98042451  0.88431920    -0.01000
C214        C  0.17737389  0.98054983  0.85977127    -0.09000
C215        C  0.21383501  0.97033273  0.84813998    -0.17900
C216        C  0.24963516  0.95920712  0.86072083     0.04500
C217        C  0.24764651  0.96016723  0.88559127     0.18700
C218        C  0.21095729  0.97109148  0.89704534    -0.19300
C219        C  0.28188118  0.94879540  0.89897635    -0.20600
C220        C  0.31755780  0.93468818  0.88823425    -0.19100
C221        C  0.32009399  0.93203061  0.86381914     0.20100
C222        C  0.28667767  0.94539108  0.84963348     0.02200
C223        C  0.29111855  0.94217652  0.82503634    -0.13800
C224        C  0.32534407  0.92265693  0.81518243    -0.11500
C225        C  0.35679238  0.90702741  0.82936082     0.01800
C226        C  0.35476392  0.91341965  0.85358594    -0.23700
H227        H  0.15067510  0.98815572  0.84933417     0.09800
H228        H  0.21271690  0.97058824  0.82928060     0.13300
H229        H  0.21010602  0.97077723  0.91599192     0.12100
H230        H  0.28064245  0.94962750  0.91794019     0.13300
H231        H  0.34297169  0.92472468  0.89914276     0.12300
H232        H  0.26768985  0.95234195  0.81300825     0.09400
H233        H  0.32560818  0.91670798  0.79650536     0.12600
H234        H  0.37844837  0.90018509  0.86466918     0.14500
C235        C  0.58676196  0.06467642  0.77849739    -0.01000
C236        C  0.54548360  0.07578416  0.78198232    -0.09000
C237        C  0.51514600  0.04571545  0.78559462    -0.17900
C238        C  0.52527761  0.00327311  0.78627818     0.04500
C239        C  0.56736464  0.99238111  0.78365853     0.18700
C240        C  0.59712846  0.02270146  0.77931605    -0.19300
C241        C  0.57972843  0.95118537  0.78542324    -0.20600
C242        C  0.55125982  0.92046258  0.79011736    -0.19100
C243        C  0.50946079  0.92990329  0.79226802     0.20100
C244        C  0.49556370  0.97121720  0.78981250     0.02200
C245        C  0.45263655  0.97828563  0.79078555    -0.13800
C246        C  0.42498078  0.94578069  0.79463395    -0.11500
C247        C  0.43905421  0.90528362  0.79808663     0.01800
C248        C  0.48156570  0.89799992  0.79692126    -0.23700
H249        H  0.53642829  0.10778664  0.78211802     0.09800
H250        H  0.48413439  0.05656839  0.78822953     0.13300
H251        H  0.62856533  0.01332819  0.77610792     0.12100
H252        H  0.61180223  0.94272116  0.78354505     0.13300
H253        H  0.56198783  0.88894282  0.79178821     0.12300
H254        H  0.43956196  0.00853283  0.78823828     0.09400
H255        H  0.39255451  0.95261936  0.79472892     0.12600
H256        H  0.49334708  0.86730509  0.80014493     0.14500
C257        C  0.32696032  0.49759647  0.38056464    -0.01000
C258        C  0.29230083  0.47803240  0.38997907    -0.09000
C259        C  0.25691750  0.47203033  0.37647287    -0.17900
C260        C  0.25502683  0.48535772  0.35288913     0.04500
C261        C  0.28935571  0.50727379  0.34385279     0.18700
C262        C  0.32470953  0.51308448  0.35763114    -0.19300
C263        C  0.28880331  0.52211611  0.32082614    -0.21200
C264        C  0.25594020  0.51349752  0.30606994    -0.19100
C265        C  0.22303421  0.48941690  0.31388466     0.20100
C266        C  0.22140221  0.47598632  0.33759526     0.02200
C267        C  0.18775687  0.45107927  0.34437912    -0.13800
C268        C  0.15990178  0.43624309  0.32775278    -0.11500
C269        C  0.16357824  0.44709494  0.30413028     0.01800
C270        C  0.19373440  0.47559898  0.29759087    -0.23700
H271        H  0.29280637  0.46612528  0.40768337     0.09800
H272        H  0.23184681  0.45617000  0.38486908     0.13300
H273        H  0.35078261  0.52923566  0.35025136     0.12100
H274        H  0.31458850  0.53939956  0.31393455     0.13300
H275        H  0.25721933  0.52411066  0.28807725     0.12300
H276        H  0.18390442  0.43996078  0.36202895     0.09400
H277        H  0.13777704  0.41311828  0.33303601     0.12600
H278        H  0.19737553  0.48309733  0.27918304     0.14500
C279        C  0.82929535  0.59338239  0.30771908    -0.01000
C280        C  0.83370455  0.59849274  0.33192361    -0.09000
C281        C  0.80442213  0.58262805  0.34748361    -0.17900
C282        C  0.76892419  0.56212341  0.33913661     0.04500
C283        C  0.76629841  0.55445847  0.31464425     0.18700
C284        C  0.79658018  0.56963275  0.29931547    -0.19300
C285        C  0.73195188  0.53437026  0.30534651    -0.20600
C286        C  0.69910841  0.52353416  0.31964097    -0.19100
C287        C  0.69965709  0.53261752  0.34360399     0.20100
C288        C  0.73490769  0.55114721  0.35386732     0.02200
C289        C  0.73365255  0.55947774  0.37819761    -0.13800
C290        C  0.69830794  0.55146385  0.39145697    -0.11500
C291        C  0.66301096  0.53476643  0.38105070     0.01800
C292        C  0.66448819  0.52447486  0.35717668    -0.23700
H293        H  0.85799749  0.61788592  0.33873224     0.09800
H294        H  0.80917448  0.58906880  0.36579435     0.13300
H295        H  0.79241326  0.56666453  0.28054048     0.12100
H296        H  0.72985643  0.52821980  0.28673000     0.13300
H297        H  0.67249841  0.50905838  0.31173638     0.12300
H298        H  0.75918062  0.57304208  0.38739971     0.09400
H299        H  0.69837814  0.55957126  0.40983980     0.12600
H300        H  0.63788108  0.51072807  0.34889383     0.14500
C301        C  0.57845403  0.14628272  0.74732460    -0.01000
C302        C  0.56109619  0.17798094  0.76067147    -0.09000
C303        C  0.53973235  0.21025943  0.74994381    -0.17900
C304        C  0.53616764  0.21236889  0.72526361     0.04500
C305        C  0.55018342  0.17797382  0.71203605     0.18700
C306        C  0.57095109  0.14527813  0.72316438    -0.19300
C307        C  0.54650438  0.17804196  0.68760250    -0.20600
C308        C  0.53219940  0.21283077  0.67586103    -0.19100
C309        C  0.52165709  0.24856302  0.68824658     0.20100
C310        C  0.52217817  0.24842325  0.71316048     0.02200
C311        C  0.51128483  0.28528694  0.72479566    -0.13800
C312        C  0.50311710  0.32136263  0.71228644    -0.11500
C313        C  0.50502661  0.32215011  0.68773409     0.01800
C314        C  0.51271592  0.28504774  0.67583378    -0.23700
H315        H  0.56732593  0.17977143  0.77929117     0.09800
H316        H  0.52867752  0.23430227  0.76133559     0.13300
H317        H  0.58511281  0.12121603  0.71271628     0.12100
H318        H  0.55645825  0.15166078  0.67742150     0.13300
H319        H  0.53123647  0.21242039  0.65688695     0.12300
H320        H  0.51009650  0.28768351  0.74360356     0.09400
H321        H  0.49603165  0.34896452  0.72210718     0.12600
H322        H  0.51388080  0.28482477  0.65687749     0.14500
C323        C  0.49556800  0.65885809  0.69791136    -0.01000
C324        C  0.47903934  0.69605889  0.68956747    -0.09000
C325        C  0.47285495  0.72962061  0.70467289    -0.17900
C326        C  0.48286850  0.72687003  0.72875913     0.04500
C327        C  0.50144976  0.68970060  0.73675622     0.18700
C328        C  0.50785256  0.65660676  0.72138870    -0.19300
C329        C  0.51212380  0.68492697  0.76031723    -0.20600
C330        C  0.50250766  0.71524439  0.77651056    -0.19100
C331        C  0.48217325  0.75117538  0.76951795     0.20100
C332        C  0.47329289  0.75845311  0.74547904     0.02200
C333        C  0.45314229  0.79590293  0.73963277    -0.13800
C334        C  0.43851502  0.82249526  0.75718853    -0.11500
C335        C  0.44419423  0.81270246  0.78084497     0.01800
C336        C  0.46808984  0.77840728  0.78675377    -0.23700
H337        H  0.46954857  0.69889497  0.67147246     0.09800
H338        H  0.45910932  0.75686118  0.69717509     0.13300
H339        H  0.52167115  0.62851796  0.72801044     0.12100
H340        H  0.52667498  0.65683105  0.76644298     0.13300
H341        H  0.50965458  0.70983726  0.79479737     0.12300
H342        H  0.44642104  0.80431516  0.72176672     0.09400
H343        H  0.42009980  0.84899025  0.75231491     0.12600
H344        H  0.47273249  0.77103931  0.80510498     0.14500
loop_ 
_geom_bond_atom_site_label_1 
_geom_bond_atom_site_label_2 
_geom_bond_distance 
_geom_bond_site_symmetry_2 
_ccdc_geom_bond_type 
N1            N2   1.321       .  A
N1            C5   1.343       .  A
N1           Cu9   2.071       .  S
N2            C3   1.349       .  A
N2           Cu8   2.087       .  S
C3            C4   1.390       .  A
C3            H6   1.081       .  S
C4            C5   1.388       .  A
C4          C323   1.489       .  S
C5            H7   1.081       .  S
Cu8          N11   2.088       .  S
Cu9          N19   2.071       .  S
Cu10         N12   2.093       .  S
Cu10         N18   2.092       .  S
N11          N12   1.325       .  A
N11          C15   1.348       .  A
N12          C13   1.349       .  A
C13          C14   1.384       .  A
C13          H16   1.082       .  S
C14          C15   1.383       .  A
C14          C38   1.474       .  S
C15          H17   1.082       .  S
N18          N19   1.321       .  A
N18          C22   1.349       .  A
N19          C20   1.342       .  A
C20          C21   1.387       .  A
C20          H23   1.081       .  S
C21          C22   1.392       .  A
C21         C313   1.492       .  S
C22          H24   1.081       .  S
N25          N26   1.322       .  A
N25          C29   1.345       .  A
N25         Cu33   2.076       .  S
N26          C27   1.348       .  A
N26         Cu32   2.090       .  S
C27          C28   1.391       .  A
C27          H30   1.081       .  S
C28          C29   1.387       .  A
C28         C257   1.490       .  S
C29          H31   1.081       .  S
Cu32         N35   2.090       .  S
Cu33         N43   2.076       .  S
Cu34         N36   2.093       .  S
Cu34         N42   2.092       .  S
N35          N36   1.325       .  A
N35          C39   1.348       .  A
N36          C37   1.349       .  A
C37          C38   1.383       .  A
C37          H40   1.082       .  S
C38          C39   1.383       .  A
C39          H41   1.082       .  S
N42          N43   1.321       .  A
N42          C46   1.349       .  A
N43          C44   1.345       .  A
C44          C45   1.388       .  A
C44          H47   1.081       .  S
C45          C46   1.392       .  A
C45         C291   1.492       .  S
C46          H48   1.081       .  S
N49          C53   1.365       .  A
N49          C50   1.366       .  A
N49         C247   1.454       .  S
C50          C51   1.380       .  A
C50         C225   1.475       .  S
C51          C52   1.363       .  A
C51          H54   1.083       .  S
C52          C53   1.381       .  A
C52          H55   1.083       .  S
C53         C335   1.481       .  S
N56          C60   1.365       .  A
N56          C57   1.365       .  A
N56         C235   1.452       .  S
C57          C58   1.381       .  A
C57         C301   1.476       .  S
C58          C59   1.366       .  A
C58          H61   1.083       .  S
C59          C60   1.380       .  A
C59          H62   1.082       .  S
C60         C191   1.481       .  S
N63          N64   1.323   1_455  A
N63          C67   1.348       .  A
N63         Cu71   2.088       .  S
N64          C65   1.346       .  A
N64         Cu70   2.085       .  S
C65          C66   1.387   1_655  A
C65          H68   1.082       .  S
C66          C67   1.388       .  A
C66         C159   1.488       .  S
C67          H69   1.082       .  S
Cu70         N73   2.084       .  S
Cu71         N81   2.088   1_545  S
Cu72         N74   2.075       .  S
Cu72         N80   2.075       .  S
N73          N74   1.323   1_645  A
N73          C77   1.348       .  A
N74          C75   1.346       .  A
C75          C76   1.381   1_465  A
C75          H78   1.082       .  S
C76          C77   1.383       .  A
C76         C100   1.468       .  S
C77          H79   1.082       .  S
N80          N81   1.321       .  A
N80          C84   1.345       .  A
N81          C82   1.347       .  A
C82          C83   1.391       .  A
C82          H85   1.081       .  S
C83          C84   1.388       .  A
C83         C169   1.491       .  S
C84          H86   1.081       .  S
N87          N88   1.321       .  A
N87          C91   1.344       .  A
N87         Cu95   2.079   1_645  S
N88          C89   1.348       .  A
N88         Cu94   2.084       .  S
C89          C90   1.390       .  A
C89          H92   1.081       .  S
C90          C91   1.389       .  A
C90         C203   1.491       .  S
C91          H93   1.081       .  S
Cu94         N97   2.084       .  S
Cu95        N105   2.079       .  S
Cu96         N98   2.080       .  S
Cu96        N104   2.080   1_545  S
N97          N98   1.324   1_655  A
N97         C101   1.347   1_556  A
N98          C99   1.347   1_556  A
C99         C100   1.381   1_455  A
C99         H102   1.082   1_545  S
C100        C101   1.382       .  A
C101        H103   1.082       .  S
N104        N105   1.321       .  A
N104        C108   1.345       .  A
N105        C106   1.345       .  A
C106        C107   1.390       .  A
C106        H109   1.081       .  S
C107        C108   1.390       .  A
C107        C213   1.491       .  S
C108        H110   1.081       .  S
N111        C115   1.362       .  A
N111        C112   1.363       .  A
N111        C125   1.448       .  S
C112        C113   1.381       .  A
C112        C269   1.475       .  S
C113        C114   1.366       .  A
C113        H116   1.083       .  S
C114        C115   1.380       .  A
C114        H117   1.082       .  S
C115        C147   1.475       .  S
N118        C122   1.362       .  A
N118        C119   1.361       .  A
N118        C137   1.444       .  S
C119        C120   1.380       .  A
C119        C181   1.476       .  S
C120        C121   1.368       .  A
C120        H123   1.082       .  S
C121        C122   1.381       .  A
C121        H124   1.082       .  S
C122        C279   1.477       .  S
C125        C126   1.401       .  A
C125        C130   1.403       .  A
C126        C127   1.402       .  A
C126        H139   1.079       .  S
C127        C128   1.417       .  A
C127        H140   1.077       .  S
C128        C134   1.436   1_455  A
C128        C129   1.422       .  A
C129        C131   1.400       .  A
C129        C130   1.407       .  A
C130        H141   1.083       .  S
C131        C132   1.390   1_455  A
C131        H142   1.084       .  S
C132        C133   1.400       .  A
C132        H143   1.084       .  S
C133        C134   1.423       .  A
C133        C138   1.407       .  A
C134        C135   1.417       .  A
C135        C136   1.402       .  A
C135        H144   1.077       .  S
C136        C137   1.399       .  A
C136        H145   1.082       .  S
C137        C138   1.401       .  A
C138        H146   1.083       .  S
C147        C148   1.398       .  A
C147        C152   1.399       .  A
C148        C149   1.401       .  A
C148        H161   1.083       .  S
C149        C150   1.417       .  A
C149        H162   1.078       .  S
C150        C156   1.433       .  A
C150        C151   1.422       .  A
C151        C153   1.399       .  A
C151        C152   1.404       .  A
C152        H163   1.085       .  S
C153        C154   1.389       .  A
C153        H164   1.084       .  S
C154        C155   1.400       .  A
C154        H165   1.084       .  S
C155        C156   1.423       .  A
C155        C160   1.406       .  A
C156        C157   1.416       .  A
C157        C158   1.401       .  A
C157        H166   1.078       .  S
C158        C159   1.402       .  A
C158        H167   1.083   1_455  S
C159        C160   1.402       .  A
C160        H168   1.083       .  S
C169        C170   1.403   1_455  A
C169        C174   1.403       .  A
C170        C171   1.399       .  A
C170        H183   1.081       .  S
C171        C172   1.414       .  A
C171        H184   1.077       .  S
C172        C178   1.433       .  A
C172        C173   1.422       .  A
C173        C175   1.399       .  A
C173        C174   1.407   1_655  A
C174        H185   1.083       .  S
C175        C176   1.390       .  A
C175        H186   1.084   1_655  S
C176        C177   1.400       .  A
C176        H187   1.084       .  S
C177        C178   1.422       .  A
C177        C182   1.406       .  A
C178        C179   1.417       .  A
C179        C180   1.400       .  A
C179        H188   1.077       .  S
C180        C181   1.398       .  A
C180        H189   1.083       .  S
C181        C182   1.400       .  A
C182        H190   1.085       .  S
C191        C192   1.399       .  A
C191        C196   1.398       .  A
C192        C193   1.405       .  A
C192        H205   1.083       .  S
C193        C194   1.419       .  A
C193        H206   1.078       .  S
C194        C200   1.435       .  A
C194        C195   1.423       .  A
C195        C197   1.398       .  A
C195        C196   1.403       .  A
C196        H207   1.085       .  S
C197        C198   1.387   1_545  A
C197        H208   1.084   1_545  S
C198        C199   1.398   1_565  A
C198        H209   1.084       .  S
C199        C200   1.423       .  A
C199        C204   1.404       .  A
C200        C201   1.416       .  A
C201        C202   1.403       .  A
C201        H210   1.078       .  S
C202        C203   1.404       .  A
C202        H211   1.082       .  S
C203        C204   1.402       .  A
C204        H212   1.083   1_545  S
C213        C214   1.403       .  A
C213        C218   1.404       .  A
C214        C215   1.399       .  A
C214        H227   1.082       .  S
C215        C216   1.415       .  A
C215        H228   1.077       .  S
C216        C222   1.432       .  A
C216        C217   1.422       .  A
C217        C219   1.400       .  A
C217        C218   1.406       .  A
C218        H229   1.082       .  S
C219        C220   1.390       .  A
C219        H230   1.084       .  S
C220        C221   1.399       .  A
C220        H231   1.084       .  S
C221        C222   1.423       .  A
C221        C226   1.406       .  A
C222        C223   1.416       .  A
C223        C224   1.398       .  A
C223        H232   1.077       .  S
C224        C225   1.399       .  A
C224        H233   1.084       .  S
C225        C226   1.400       .  A
C226        H234   1.085       .  S
C235        C236   1.404       .  A
C235        C240   1.403       .  A
C236        C237   1.404       .  A
C236        H249   1.079       .  S
C237        C238   1.416       .  A
C237        H250   1.079       .  S
C238        C244   1.435   1_545  A
C238        C239   1.421   1_545  A
C239        C241   1.399       .  A
C239        C240   1.404   1_565  A
C240        H251   1.082       .  S
C241        C242   1.388       .  A
C241        H252   1.084       .  S
C242        C243   1.399       .  A
C242        H253   1.084       .  S
C243        C244   1.421       .  A
C243        C248   1.403       .  A
C244        C245   1.416       .  A
C245        C246   1.405       .  A
C245        H254   1.079   1_565  S
C246        C247   1.404       .  A
C246        H255   1.078       .  S
C247        C248   1.404       .  A
C248        H256   1.082       .  S
C257        C258   1.402       .  A
C257        C262   1.404       .  A
C258        C259   1.400       .  A
C258        H271   1.082       .  S
C259        C260   1.415       .  A
C259        H272   1.077       .  S
C260        C266   1.433       .  A
C260        C261   1.422       .  A
C261        C263   1.400       .  A
C261        C262   1.407       .  A
C262        H273   1.083       .  S
C263        C264   1.390       .  A
C263        H274   1.084       .  S
C264        C265   1.399       .  A
C264        H275   1.084       .  S
C265        C266   1.423       .  A
C265        C270   1.406       .  A
C266        C267   1.416       .  A
C267        C268   1.399       .  A
C267        H276   1.078       .  S
C268        C269   1.399       .  A
C268        H277   1.083       .  S
C269        C270   1.400       .  A
C270        H278   1.085       .  S
C279        C280   1.399       .  A
C279        C284   1.400       .  A
C280        C281   1.401       .  A
C280        H293   1.083       .  S
C281        C282   1.416       .  A
C281        H294   1.077       .  S
C282        C288   1.435       .  A
C282        C283   1.423       .  A
C283        C285   1.399       .  A
C283        C284   1.407       .  A
C284        H295   1.085       .  S
C285        C286   1.390       .  A
C285        H296   1.084       .  S
C286        C287   1.400       .  A
C286        H297   1.084       .  S
C287        C288   1.422       .  A
C287        C292   1.407       .  A
C288        C289   1.416       .  A
C289        C290   1.401       .  A
C289        H298   1.077       .  S
C290        C291   1.403       .  A
C290        H299   1.082       .  S
C291        C292   1.404       .  A
C292        H300   1.083       .  S
C301        C302   1.398       .  A
C301        C306   1.401       .  A
C302        C303   1.397       .  A
C302        H315   1.084       .  S
C303        C304   1.415       .  A
C303        H316   1.077       .  S
C304        C310   1.432       .  A
C304        C305   1.422       .  A
C305        C307   1.400       .  A
C305        C306   1.408       .  A
C306        H317   1.085       .  S
C307        C308   1.392       .  A
C307        H318   1.084       .  S
C308        C309   1.400       .  A
C308        H319   1.084       .  S
C309        C310   1.423       .  A
C309        C314   1.409       .  A
C310        C311   1.413       .  A
C311        C312   1.396       .  A
C311        H320   1.077       .  S
C312        C313   1.403       .  A
C312        H321   1.081       .  S
C313        C314   1.405       .  A
C314        H322   1.083       .  S
C323        C324   1.404       .  A
C323        C328   1.401       .  A
C324        C325   1.403       .  A
C324        H337   1.082       .  S
C325        C326   1.416       .  A
C325        H338   1.078       .  S
C326        C332   1.435       .  A
C326        C327   1.423       .  A
C327        C329   1.398       .  A
C327        C328   1.402       .  A
C328        H339   1.083       .  S
C329        C330   1.386       .  A
C329        H340   1.084       .  S
C330        C331   1.397       .  A
C330        H341   1.084       .  S
C331        C332   1.422       .  A
C331        C336   1.399       .  A
C332        C333   1.419       .  A
C333        C334   1.405       .  A
C333        H342   1.078       .  S
C334        C335   1.400       .  A
C334        H343   1.083       .  S
C335        C336   1.397       .  A
C336        H344   1.085       .  S
