geometry optimzed in LAMMPS
_audit_creation_date              2020-12-01 
_audit_creation_method            'lammps2cif' 
_symmetry_space_group_name_H-M    'P1' 
_symmetry_Int_Tables_number       1 
_symmetry_cell_setting            triclinic 
loop_ 
_symmetry_equiv_pos_as_xyz 
  x,y,z 
_cell_length_a                    34.15318038 
_cell_length_b                    34.22209146967686 
_cell_length_c                    24.59222819682329 
_cell_angle_alpha                 90.2425550712352 
_cell_angle_beta                  89.91213526131448 
_cell_angle_gamma                 69.26195150455989 
loop_ 
_atom_site_label 
_atom_site_type_symbol 
_atom_site_fract_x 
_atom_site_fract_y 
_atom_site_fract_z 
_atom_site_charge 
O1          O  0.11413883  0.96115895  0.11156670    -0.75100
O2          O  0.10988881  0.01941296  0.06356530    -0.54000
C3          C  0.12697293  0.99124660  0.09955460     0.78700
O4          O  0.04081172  0.87592637  0.89246205    -0.59700
O5          O  0.98442864  0.87520392  0.94164415    -0.52700
C6          C  0.01302587  0.85999898  0.90522851     0.70700
O7          O  0.11532638  0.96111109  0.89395810    -0.74200
O8          O  0.11037863  0.01949811  0.94277311    -0.54800
C9          C  0.12778744  0.99140209  0.90644956     0.76700
O10         O  0.03722688  0.87774717  0.11191904    -0.59400
O11         O  0.98084358  0.87732360  0.06272166    -0.52500
C12         C  0.00883209  0.86244365  0.09962577     0.73300
Zr13       Zr  0.05924178  0.93527410  0.08298435     2.54700
O14         O  0.12363005  0.87476394  0.07605103    -0.79900
O15         O  0.05751110  0.93434217  0.18196355    -0.93300
Zr16       Zr  0.06066364  0.93479195  0.92170495     2.64700
O17         O  0.12562515  0.87492821  0.92805871    -0.98300
O18         O  0.06200007  0.93532761  0.82272677    -0.80400
O19         O  0.08225598  0.95915421  0.00276812    -0.83700
O20         O  0.03919108  0.90970173  0.00198339    -2.18400
O21         O  0.90052751  0.00648010  0.11099896    -0.67100
O22         O  0.90531193  0.94839814  0.06165427    -0.51700
C23         C  0.88821208  0.97605382  0.09850397     0.71700
O24         O  0.97405333  0.09371632  0.89659421    -0.60000
O25         O  0.03165445  0.09385144  0.94324316    -0.52000
C26         C  0.00216741  0.10943644  0.90831315     0.73500
O27         O  0.90209755  0.00609914  0.89045351    -0.71400
O28         O  0.90588469  0.94853308  0.93954088    -0.50100
C29         C  0.88935833  0.97597354  0.90258816     0.74800
O30         O  0.97343205  0.09374550  0.10890063    -0.66700
O31         O  0.03080088  0.09452054  0.06199963    -0.53900
C32         C  0.00122934  0.10984767  0.09717030     0.73200
Zr33       Zr  0.95417150  0.03420475  0.08233299     2.77500
O34         O  0.88968361  0.09489130  0.07990109    -0.97500
O35         O  0.95520691  0.03459341  0.18130567    -0.78300
Zr36       Zr  0.95541248  0.03352680  0.92101626     2.70100
O37         O  0.88888935  0.09170366  0.92243952    -0.79600
O38         O  0.95996200  0.03488047  0.82227550    -0.98600
Zr39       Zr  0.05025051  0.03337933  0.00284199     2.21500
Zr40       Zr  0.96461257  0.93603295  0.00104951     2.11100
O41         O  0.93218607  0.01028482  0.00132505    -2.47300
O42         O  0.97559758  0.05926452  0.00199122    -0.79400
O43         O  0.98511720  0.96038381  0.08312190    -0.71600
O44         O  0.02956553  0.00871850  0.92076653    -2.32500
O45         O  0.02837241  0.00931179  0.08439436    -2.28700
O46         O  0.98638616  0.95957472  0.91931744    -0.73300
H47         H  0.05006560  0.87952431  0.00215076     0.78700
H48         H  0.03919373  0.01955976  0.88929233     0.79800
H49         H  0.90204712  0.01861796  0.00099314     0.82000
H50         H  0.03760643  0.02028603  0.11616029     0.79600
H51         H  0.03288552  0.93957329  0.81185588     0.42600
H52         H  0.96294058  0.00627410  0.81046749     0.41600
H53         H  0.88809991  0.10501947  0.95843843     0.41300
H54         H  0.86950487  0.08532319  0.06004826     0.39200
H55         H  0.96361779  0.00479100  0.19149215     0.42400
H56         H  0.05427071  0.96313492  0.19322101     0.37100
H57         H  0.13438749  0.86988495  0.11372632     0.43300
H58         H  0.11757449  0.85261519  0.94484888     0.39700
H59         H  0.87948961  0.09849335  0.11797089     0.44600
H60         H  0.08639250  0.91715557  0.19272934     0.43300
H61         H  0.13266929  0.86563969  0.88993775     0.43500
H62         H  0.93148775  0.05252688  0.81051210     0.43800
N63         N  0.99351481  0.48965708  0.24497022    -0.03200
C64         C  0.00187740  0.51738042  0.21159357    -0.00700
C65         C  0.99860126  0.50734223  0.15774715    -0.23500
C66         C  0.98770917  0.47250106  0.15752454    -0.23700
C67         C  0.98494744  0.46207106  0.21125559    -0.00800
H68         H  0.00298804  0.52407084  0.12237188     0.13000
H69         H  0.98329538  0.45586265  0.12189461     0.13100
N70         N  0.99500735  0.48851127  0.75835875    -0.03200
C71         C  0.00410234  0.51571186  0.79212250    -0.00700
C72         C  0.00139782  0.50509157  0.84579781    -0.23500
C73         C  0.99013659  0.47041371  0.84537125    -0.23700
C74         C  0.98663240  0.46069383  0.79145796    -0.00800
H75         H  0.00655733  0.52121830  0.88149468     0.13000
H76         H  0.98627005  0.45324719  0.88059018     0.13100
N77         N  0.50030662  0.00046480  0.25022834    -0.03200
C78         C  0.53200692  0.99888304  0.21575229    -0.00700
C79         C  0.51698227  0.01017302  0.16387102    -0.23500
C80         C  0.47463243  0.01913303  0.16605555    -0.23700
C81         C  0.46514490  0.01273981  0.21917463    -0.00800
H82         H  0.53506798  0.01132705  0.12812891     0.13000
H83         H  0.45327206  0.02762890  0.13200645     0.13100
N84         N  0.50484211  0.99416055  0.76084174    -0.03200
C85         C  0.53738141  0.98869063  0.79536383    -0.00700
C86         C  0.52317097  0.99657488  0.84835266    -0.23500
C87         C  0.48051773  0.00745093  0.84665157    -0.23700
C88         C  0.46998263  0.00554241  0.79270290    -0.00800
H89         H  0.54185559  0.99493958  0.88436442     0.13000
H90         H  0.45954957  0.01453219  0.88131204     0.13100
C91         C  0.50263313  0.99372596  0.30827907    -0.03100
C92         C  0.47253415  0.02140207  0.34283296    -0.08900
C93         C  0.47518926  0.01608216  0.39918689    -0.16600
C94         C  0.50808938  0.98316115  0.42202972     0.25600
C95         C  0.53788478  0.95494667  0.38794100    -0.18200
C96         C  0.53510980  0.96012268  0.33136405    -0.07100
C97         C  0.51151065  0.97952703  0.48045337    -0.13600
C98         C  0.51222176  0.97967706  0.52958609    -0.13300
C99         C  0.51057269  0.98293659  0.58816713     0.25500
C100        C  0.53891396  0.95205289  0.62030103    -0.18700
C101        C  0.53694258  0.95555856  0.67710173    -0.07200
C102        C  0.50667913  0.99005911  0.70239851    -0.03300
C103        C  0.47836327  0.02086242  0.66988765    -0.08600
C104        C  0.48030830  0.01731909  0.61319042    -0.16200
H105        H  0.44744055  0.04774326  0.32621462     0.11900
H106        H  0.45192885  0.03812122  0.42503749     0.11200
H107        H  0.56339706  0.92919919  0.40506225     0.11200
H108        H  0.55822751  0.93789013  0.30567095     0.11700
H109        H  0.56243428  0.92526168  0.60149559     0.11800
H110        H  0.55877581  0.93121899  0.70135747     0.11700
H111        H  0.45508442  0.04790764  0.68847020     0.11900
H112        H  0.45826180  0.04148200  0.58883983     0.10700
C113        C  0.99316820  0.48977235  0.30374495    -0.03100
C114        C  0.02444928  0.49837444  0.33327164    -0.08900
C115        C  0.02404637  0.49835713  0.39022091    -0.16600
C116        C  0.99255157  0.48946522  0.41845635     0.25600
C117        C  0.96136988  0.48075888  0.38935405    -0.18200
C118        C  0.96155392  0.48110183  0.33245024    -0.07100
C119        C  0.99212504  0.48942219  0.47718585    -0.13000
C120        C  0.99192886  0.48951192  0.52633827    -0.13300
C121        C  0.99239692  0.48963638  0.58506114     0.25500
C122        C  0.96054342  0.48233046  0.61452449    -0.18700
C123        C  0.96136151  0.48207217  0.67144675    -0.07200
C124        C  0.99409826  0.48902893  0.69967168    -0.03300
C125        C  0.02588062  0.49642911  0.66982009    -0.08600
C126        C  0.02497159  0.49681380  0.61292272    -0.16200
H127        H  0.04948313  0.50457697  0.31227604     0.11900
H128        H  0.04840314  0.50509094  0.41221635     0.11200
H129        H  0.93676714  0.47392439  0.41064447     0.11200
H130        H  0.93674943  0.47498855  0.31080178     0.11700
H131        H  0.93508453  0.47685461  0.59352713     0.11800
H132        H  0.93624364  0.47682705  0.69352848     0.11700
H133        H  0.05168777  0.50135331  0.69055086     0.11900
H134        H  0.04983470  0.50244611  0.59064654     0.10700
C135        C  0.00000335  0.14820585  0.87927264    -0.03100
C136        C  0.96994802  0.16476893  0.83822777    -0.08900
C137        C  0.96702276  0.20171701  0.81155855    -0.16600
C138        C  0.99409647  0.22272451  0.82525675     0.25600
C139        C  0.02432786  0.20640934  0.86564409    -0.18200
C140        C  0.02736849  0.16939448  0.89239530    -0.07100
C141        C  0.98962852  0.26203719  0.79994450    -0.13600
C142        C  0.98562252  0.29648155  0.78363582    -0.13300
C143        C  0.98112711  0.33929837  0.77320072     0.25500
C144        C  0.01321492  0.34887320  0.74730191    -0.18700
C145        C  0.01292775  0.38995674  0.74802997    -0.07200
C146        C  0.98077092  0.42152814  0.77520505    -0.03300
C147        C  0.94728769  0.41223619  0.79765320    -0.08600
C148        C  0.94734008  0.37141439  0.79635764    -0.16200
H149        H  0.94839649  0.14936043  0.82684453     0.11900
H150        H  0.94332767  0.21412152  0.78065677     0.11200
H151        H  0.04527897  0.22256646  0.87690598     0.11200
H152        H  0.05081025  0.15768269  0.92372625     0.11700
H153        H  0.03971237  0.32424285  0.72964376     0.11800
H154        H  0.03942884  0.39634805  0.73144721     0.11700
H155        H  0.92247709  0.43608744  0.81933328     0.11900
H156        H  0.92244764  0.36443912  0.81673276     0.10700
C157        C  0.01402008  0.82143338  0.87607187    -0.03100
C158        C  0.98398831  0.80309700  0.88766600    -0.08900
C159        C  0.98476818  0.76685957  0.86046629    -0.16600
C160        C  0.01549402  0.74820254  0.82119161     0.25600
C161        C  0.04560897  0.76605244  0.80931138    -0.18200
C162        C  0.04489073  0.80241256  0.83647266    -0.07100
C163        C  0.01709120  0.70955688  0.79568440    -0.13600
C164        C  0.01784379  0.67564038  0.78056076    -0.13300
C165        C  0.01873469  0.63350673  0.77255281     0.25500
C166        C  0.04959350  0.60075592  0.79884042    -0.18700
C167        C  0.04644819  0.56122741  0.80120471    -0.07200
C168        C  0.01259033  0.55373234  0.77686638    -0.03300
C169        C  0.98321806  0.58579322  0.74717761    -0.08600
C170        C  0.98616810  0.62566334  0.74527481    -0.16200
H171        H  0.95985519  0.81664048  0.91792243     0.11900
H172        H  0.96153987  0.75314785  0.87047572     0.11200
H173        H  0.06984127  0.75169811  0.77942310     0.11200
H174        H  0.06862466  0.81547028  0.82660227     0.11700
H175        H  0.07477550  0.60638203  0.82034903     0.11800
H176        H  0.06922731  0.53701811  0.82467394     0.11700
H177        H  0.95647672  0.58086395  0.72896406     0.11900
H178        H  0.96186018  0.65082256  0.72518426     0.10700
C179        C  0.97809199  0.42320031  0.22642201    -0.03100
C180        C  0.94654369  0.41319147  0.19967456    -0.08900
C181        C  0.94596539  0.37267148  0.20142789    -0.16600
C182        C  0.97698540  0.34152928  0.22981798     0.25600
C183        C  0.00694142  0.35186281  0.25972264    -0.18200
C184        C  0.00741213  0.39267918  0.25821791    -0.07100
C185        C  0.98118358  0.29854863  0.22124914    -0.13600
C186        C  0.98514618  0.26386198  0.20564036    -0.13300
C187        C  0.99039083  0.22434145  0.18002701     0.25500
C188        C  0.01635480  0.21150496  0.13426014    -0.18700
C189        C  0.02050062  0.17399441  0.10767301    -0.07200
C190        C  0.99839545  0.14888922  0.12629790    -0.03300
C191        C  0.97247308  0.16204188  0.17252072    -0.08600
C192        C  0.96853741  0.19946181  0.19915097    -0.16200
H193        H  0.92383591  0.43618626  0.17461917     0.11900
H194        H  0.92282733  0.36506356  0.17784461     0.11200
H195        H  0.03134597  0.32791401  0.28145786     0.11200
H196        H  0.03245371  0.39951209  0.27833106     0.11700
H197        H  0.03312684  0.23072876  0.11878296     0.11800
H198        H  0.04042206  0.16504480  0.07204408     0.11700
H199        H  0.95506727  0.14347574  0.18809636     0.11900
H200        H  0.94816588  0.20914369  0.23430870     0.10700
C201        C  0.00991147  0.55558478  0.22728289    -0.03100
C202        C  0.04405470  0.56297050  0.20358652    -0.08900
C203        C  0.04666854  0.60274530  0.20535491    -0.16600
C204        C  0.01498610  0.63582692  0.23041435     0.25600
C205        C  0.98207406  0.62814479  0.25710176    -0.18200
C206        C  0.97963413  0.58804748  0.25576231    -0.07100
C207        C  0.01376961  0.67797528  0.22191248    -0.13600
C208        C  0.01261536  0.71201125  0.20710682    -0.13300
C209        C  0.01056064  0.75106211  0.18280022     0.25500
C210        C  0.97887602  0.77067743  0.14542396    -0.18700
C211        C  0.97787900  0.80719081  0.11909083    -0.07200
C212        C  0.00875667  0.82471292  0.12954300    -0.03300
C213        C  0.04016145  0.80508238  0.16786322    -0.08600
C214        C  0.04110513  0.76848321  0.19410673    -0.16200
H215        H  0.06743484  0.53844904  0.18087700     0.11900
H216        H  0.07212106  0.60822946  0.18428978     0.11200
H217        H  0.95714204  0.65354956  0.27623297     0.11200
H218        H  0.95263119  0.58317681  0.27332433     0.11700
H219        H  0.95518587  0.75740591  0.13603683     0.11800
H220        H  0.95316581  0.82136725  0.09005079     0.11700
H221        H  0.06443350  0.81759710  0.17701219     0.11900
H222        H  0.06597274  0.75349932  0.22265621     0.10700
C223        C  0.85284683  0.97307941  0.87217128    -0.03100
C224        C  0.83823696  0.94005611  0.88178574    -0.08900
C225        C  0.80290285  0.93830063  0.85466341    -0.16600
C226        C  0.78158671  0.96941654  0.81748797     0.25600
C227        C  0.79621137  0.00200929  0.80691611    -0.18200
C228        C  0.83159749  0.00382096  0.83391324    -0.07100
C229        C  0.74293121  0.96950501  0.79379986    -0.13600
C230        C  0.70881403  0.96975604  0.78051898    -0.13300
C231        C  0.66675838  0.96983794  0.77494110     0.25500
C232        C  0.65440692  0.94255547  0.80700730    -0.18700
C233        C  0.61229976  0.94687698  0.81014850    -0.07200
C234        C  0.58193502  0.97835485  0.78093534    -0.03300
C235        C  0.59461921  0.00406086  0.74604165    -0.08600
C236        C  0.63695929  0.99993662  0.74326607    -0.16200
H237        H  0.85374127  0.91581701  0.91079527     0.11900
H238        H  0.79169885  0.91308197  0.86354184     0.11200
H239        H  0.77979380  0.02648275  0.77861393     0.11200
H240        H  0.84184220  0.02972091  0.82543758     0.11700
H241        H  0.67703098  0.91935141  0.83193482     0.11800
H242        H  0.60307470  0.92698324  0.83760432     0.11700
H243        H  0.57156880  0.02900791  0.72395359     0.11900
H244        H  0.64607595  0.02149339  0.71865717     0.10700
C245        C  0.16485740  0.99384996  0.87686770    -0.03100
C246        C  0.18108958  0.02528325  0.88951057    -0.08900
C247        C  0.21661291  0.02685880  0.86263034    -0.16600
C248        C  0.23643506  0.99723938  0.82255321     0.25600
C249        C  0.22038036  0.96607459  0.80922262    -0.18200
C250        C  0.18481981  0.96440593  0.83605786    -0.07100
C251        C  0.27410181  0.99825958  0.79699847    -0.13600
C252        C  0.30658072  0.00090179  0.78128187    -0.13300
C253        C  0.34612199  0.00621853  0.77235590     0.25500
C254        C  0.37946218  0.97508309  0.74652787    -0.18700
C255        C  0.41988393  0.97681331  0.74815698    -0.07200
C256        C  0.42714345  0.00948571  0.77611351    -0.03300
C257        C  0.39302053  0.04202215  0.79838105    -0.08600
C258        C  0.35278615  0.04044936  0.79636107    -0.16200
H259        H  0.16663073  0.04847030  0.92055286     0.11900
H260        H  0.22888252  0.05101215  0.87351154     0.11200
H261        H  0.23553963  0.94285037  0.77847533     0.11200
H262        H  0.17321815  0.93981477  0.82509527     0.11700
H263        H  0.37473920  0.94830297  0.72807084     0.11800
H264        H  0.44583047  0.95103738  0.73153706     0.11700
H265        H  0.39797572  0.06735599  0.82039881     0.11900
H266        H  0.32733607  0.06465132  0.81659827     0.10700
C267        C  0.85133264  0.97318133  0.12810021    -0.03100
C268        C  0.82796011  0.00542086  0.16365367    -0.08900
C269        C  0.79181563  0.00401499  0.18907342    -0.16600
C270        C  0.77854698  0.97030721  0.17976567     0.25600
C271        C  0.80208716  0.93755464  0.14554709    -0.18200
C272        C  0.83824001  0.93890754  0.11994766    -0.07100
C273        C  0.73941131  0.97071434  0.20246329    -0.13600
C274        C  0.70510431  0.97225007  0.21704780    -0.13300
C275        C  0.66265135  0.97453765  0.22650515     0.25500
C276        C  0.64780100  0.94699480  0.19847163    -0.18700
C277        C  0.60522148  0.95304818  0.19925777    -0.07200
C278        C  0.57692001  0.98654425  0.22838991    -0.03300
C279        C  0.59207868  0.01267882  0.25932697    -0.08600
C280        C  0.63490983  0.00675322  0.25822820    -0.16200
H281        H  0.83702522  0.03226592  0.17097411     0.11900
H282        H  0.77375606  0.02966195  0.21518938     0.11200
H283        H  0.79206551  0.91134499  0.13781611     0.11200
H284        H  0.85554037  0.91341135  0.09317478     0.11700
H285        H  0.66878174  0.92219087  0.17351182     0.11800
H286        H  0.59392218  0.93303652  0.17446648     0.11700
H287        H  0.57053579  0.03922035  0.28105053     0.11900
H288        H  0.64597745  0.02850701  0.27973428     0.10700
C289        C  0.16411250  0.99331971  0.12930589    -0.03100
C290        C  0.18194794  0.96554185  0.17224997    -0.08900
C291        C  0.21734269  0.96697388  0.19962113    -0.16600
C292        C  0.23545613  0.99614763  0.18458692     0.25600
C293        C  0.21792078  0.02398364  0.14214892    -0.18200
C294        C  0.18251638  0.02268154  0.11477331    -0.07100
C295        C  0.27277746  0.99698864  0.21112419    -0.13600
C296        C  0.30494940  0.99973300  0.22773168    -0.13300
C297        C  0.34382592  0.00612919  0.23754899     0.25500
C298        C  0.34842060  0.04255076  0.21790516    -0.18700
C299        C  0.38782692  0.04610206  0.21649742    -0.07200
C300        C  0.42318524  0.01335314  0.23502240    -0.03300
C301        C  0.41808556  0.97810429  0.25855457    -0.08600
C302        C  0.37846818  0.97441471  0.25957166    -0.16200
H303        H  0.16866878  0.94254902  0.18467004     0.11900
H304        H  0.23072101  0.94514715  0.23221762     0.11200
H305        H  0.23182782  0.04655782  0.12991321     0.11200
H306        H  0.16983981  0.04442667  0.08190657     0.11700
H307        H  0.32195569  0.06718386  0.20054450     0.11800
H308        H  0.39115370  0.07340167  0.19789255     0.11700
H309        H  0.44506281  0.95217770  0.27217558     0.11900
H310        H  0.37534942  0.94593328  0.27454269     0.10700
loop_ 
_geom_bond_atom_site_label_1 
_geom_bond_atom_site_label_2 
_geom_bond_distance 
_geom_bond_site_symmetry_2 
_ccdc_geom_bond_type 
O1          Zr13   2.443       .  S
O1            C3   1.289       .  A
O2          Zr39   2.436       .  S
O2            C3   1.290   1_545  A
C3          C289   1.488       .  S
O4          Zr16   2.448       .  S
O4            C6   1.290       .  A
O5          Zr40   2.429   1_556  S
O5            C6   1.288   1_655  A
C6          C157   1.489       .  S
O7          Zr16   2.440       .  S
O7            C9   1.288       .  A
O8          Zr39   2.433   1_556  S
O8            C9   1.289   1_545  A
C9          C245   1.487       .  S
O10         Zr13   2.451       .  S
O10          C12   1.290       .  A
O11         Zr40   2.426       .  S
O11          C12   1.288   1_655  A
C12         C212   1.490       .  S
Zr13         O14   2.434       .  S
Zr13         O15   2.435       .  S
Zr13         O19   2.375       .  S
Zr13         O20   2.370       .  S
Zr13         O43   2.368   1_455  S
Zr13         O45   2.375   1_565  S
O14          H57   0.990       .  S
O15          H56   0.990       .  S
O15          H60   0.990       .  S
Zr16         O17   2.435       .  S
Zr16         O18   2.435       .  S
Zr16         O20   2.372   1_556  S
Zr16         O19   2.375   1_556  S
Zr16         O44   2.372   1_565  S
Zr16         O46   2.374   1_455  S
O17          H58   0.990       .  S
O17          H61   0.990       .  S
O18          H51   0.990       .  S
O19         Zr39   2.383   1_565  S
O20         Zr40   2.382   1_455  S
O20          H47   0.966       .  S
O21         Zr33   2.447       .  S
O21          C23   1.290   1_545  A
O22         Zr40   2.425       .  S
O22          C23   1.288       .  A
C23         C267   1.487       .  S
O24         Zr36   2.439       .  S
O24          C26   1.288   1_655  A
O25         Zr39   2.436   1_556  S
O25          C26   1.289       .  A
C26         C135   1.488       .  S
O27         Zr36   2.443       .  S
O27          C29   1.289   1_545  A
O28         Zr40   2.429   1_556  S
O28          C29   1.288       .  A
C29         C223   1.488       .  S
O30         Zr33   2.439       .  S
O30          C32   1.288   1_655  A
O31         Zr39   2.434       .  S
O31          C32   1.289       .  A
C32         C190   1.486   1_455  S
Zr33         O34   2.435       .  S
Zr33         O35   2.434       .  S
Zr33         O41   2.372       .  S
Zr33         O42   2.373       .  S
Zr33         O45   2.371   1_655  S
Zr33         O43   2.368   1_545  S
O34          H54   0.990       .  S
O34          H59   0.990       .  S
O35          H55   0.990       .  S
Zr36         O37   2.434       .  S
Zr36         O38   2.435       .  S
Zr36         O42   2.374   1_556  S
Zr36         O41   2.370   1_556  S
Zr36         O46   2.372   1_545  S
Zr36         O44   2.369   1_655  S
O37          H53   0.990       .  S
O38          H52   0.990       .  S
O38          H62   0.990       .  S
Zr39         O42   2.385   1_455  S
Zr39         O44   2.387   1_554  S
Zr39         O45   2.388       .  S
Zr40         O41   2.385   1_565  S
Zr40         O43   2.379       .  S
Zr40         O46   2.382   1_554  S
O41          H49   0.966       .  S
O44          H48   0.966       .  S
O45          H50   0.966       .  S
N63          C67   1.362       .  A
N63          C64   1.361   1_655  A
N63         C113   1.445       .  S
C64         C201   1.478       .  S
C64          C65   1.381   1_455  A
C65          C66   1.369       .  A
C65          H68   1.082   1_655  S
C66          C67   1.382       .  A
C66          H69   1.082       .  S
C67         C179   1.479       .  S
N70          C74   1.360       .  A
N70          C71   1.361   1_655  A
N70         C124   1.444       .  S
C71         C168   1.479       .  S
C71          C72   1.382       .  A
C72          C73   1.371   1_455  A
C72          H75   1.082       .  S
C73          C74   1.381       .  A
C73          H76   1.082       .  S
C74         C146   1.477       .  S
N77          C81   1.360       .  A
N77          C78   1.360   1_545  A
N77          C91   1.445   1_545  S
C78         C278   1.474       .  S
C78          C79   1.381   1_565  A
C79          C80   1.369       .  A
C79          H82   1.082       .  S
C80          C81   1.382       .  A
C80          H83   1.082       .  S
C81         C300   1.477       .  S
N84          C88   1.360   1_565  A
N84          C85   1.359       .  A
N84         C102   1.443       .  S
C85         C234   1.477       .  S
C85          C86   1.382       .  A
C86          C87   1.371   1_565  A
C86          H89   1.082       .  S
C87          C88   1.382       .  A
C87          H90   1.082       .  S
C88         C256   1.479       .  S
C91          C92   1.406   1_565  A
C91          C96   1.407       .  A
C92          C93   1.397       .  A
C92         H105   1.082       .  S
C93          C94   1.399   1_545  A
C93         H106   1.084       .  S
C94          C95   1.402       .  A
C94          C97   1.444       .  S
C95          C96   1.402       .  A
C95         H107   1.083       .  S
C96         H108   1.082       .  S
C97          C98   1.209       .  T
C98          C99   1.444       .  S
C99         C100   1.401       .  A
C99         C104   1.401   1_565  A
C100        C101   1.401       .  A
C100        H109   1.083       .  S
C101        C102   1.406       .  A
C101        H110   1.082       .  S
C102        C103   1.405   1_565  A
C103        C104   1.398       .  A
C103        H111   1.082       .  S
C104        H112   1.083       .  S
C113        C114   1.407   1_655  A
C113        C118   1.407       .  A
C114        C115   1.401       .  A
C114        H127   1.082       .  S
C115        C116   1.401   1_455  A
C115        H128   1.083       .  S
C116        C117   1.400       .  A
C116        C119   1.444       .  S
C117        C118   1.400       .  A
C117        H129   1.083       .  S
C118        H130   1.082       .  S
C119        C120   1.209       .  T
C120        C121   1.444       .  S
C121        C122   1.401       .  A
C121        C126   1.401   1_655  A
C122        C123   1.400       .  A
C122        H131   1.083       .  S
C123        C124   1.406       .  A
C123        H132   1.082       .  S
C124        C125   1.405   1_655  A
C125        C126   1.400       .  A
C125        H133   1.082       .  S
C126        H134   1.083       .  S
C135        C136   1.411   1_455  A
C135        C140   1.408       .  A
C136        C137   1.399       .  A
C136        H149   1.083       .  S
C137        C138   1.398       .  A
C137        H150   1.083       .  S
C138        C139   1.401   1_655  A
C138        C141   1.443       .  S
C139        C140   1.401       .  A
C139        H151   1.083       .  S
C140        H152   1.083       .  S
C141        C142   1.208       .  T
C142        C143   1.442       .  S
C143        C144   1.403   1_655  A
C143        C148   1.399       .  A
C144        C145   1.403       .  A
C144        H153   1.083       .  S
C145        C146   1.404   1_455  A
C145        H154   1.083       .  S
C146        C147   1.404       .  A
C147        C148   1.397       .  A
C147        H155   1.083       .  S
C148        H156   1.084       .  S
C157        C158   1.408   1_455  A
C157        C162   1.410       .  A
C158        C159   1.398       .  A
C158        H171   1.083       .  S
C159        C160   1.400   1_655  A
C159        H172   1.084       .  S
C160        C161   1.401       .  A
C160        C163   1.445       .  S
C161        C162   1.402       .  A
C161        H173   1.083       .  S
C162        H174   1.083       .  S
C163        C164   1.209       .  T
C164        C165   1.444       .  S
C165        C166   1.399       .  A
C165        C170   1.404   1_455  A
C166        C167   1.396       .  A
C166        H175   1.084       .  S
C167        C168   1.404       .  A
C167        H176   1.083       .  S
C168        C169   1.405   1_455  A
C169        C170   1.404       .  A
C169        H177   1.083       .  S
C170        H178   1.083       .  S
C179        C180   1.404       .  A
C179        C184   1.405   1_655  A
C180        C181   1.395       .  A
C180        H193   1.083       .  S
C181        C182   1.398       .  A
C181        H194   1.084       .  S
C182        C183   1.403   1_655  A
C182        C185   1.441       .  S
C183        C184   1.403       .  A
C183        H195   1.083       .  S
C184        H196   1.083       .  S
C185        C186   1.207       .  T
C186        C187   1.442       .  S
C187        C188   1.401   1_655  A
C187        C192   1.398       .  A
C188        C189   1.400       .  A
C188        H197   1.084       .  S
C189        C190   1.407   1_455  A
C189        H198   1.083       .  S
C190        C191   1.410       .  A
C191        C192   1.399       .  A
C191        H199   1.083       .  S
C192        H200   1.083       .  S
C201        C202   1.404       .  A
C201        C206   1.404   1_455  A
C202        C203   1.396       .  A
C202        H215   1.083       .  S
C203        C204   1.399       .  A
C203        H216   1.084       .  S
C204        C205   1.404   1_455  A
C204        C207   1.444       .  S
C205        C206   1.404       .  A
C205        H217   1.083       .  S
C206        H218   1.083       .  S
C207        C208   1.209       .  T
C208        C209   1.445       .  S
C209        C210   1.400   1_455  A
C209        C214   1.400       .  A
C210        C211   1.400       .  A
C210        H219   1.084       .  S
C211        C212   1.409   1_655  A
C211        H220   1.083       .  S
C212        C213   1.410       .  A
C213        C214   1.402       .  A
C213        H221   1.083       .  S
C214        H222   1.083       .  S
C223        C224   1.408       .  A
C223        C228   1.410   1_565  A
C224        C225   1.399       .  A
C224        H237   1.083       .  S
C225        C226   1.400       .  A
C225        H238   1.084       .  S
C226        C227   1.399   1_565  A
C226        C229   1.443       .  S
C227        C228   1.400       .  A
C227        H239   1.083       .  S
C228        H240   1.083       .  S
C229        C230   1.208       .  T
C230        C231   1.442       .  S
C231        C232   1.398       .  A
C231        C236   1.404       .  A
C232        C233   1.395       .  A
C232        H241   1.084       .  S
C233        C234   1.403       .  A
C233        H242   1.083       .  S
C234        C235   1.405   1_565  A
C235        C236   1.404   1_545  A
C235        H243   1.083       .  S
C236        H244   1.083   1_565  S
C245        C246   1.408   1_565  A
C245        C250   1.411       .  A
C246        C247   1.399       .  A
C246        H259   1.083       .  S
C247        C248   1.400   1_545  A
C247        H260   1.084       .  S
C248        C249   1.399       .  A
C248        C251   1.442       .  S
C249        C250   1.400       .  A
C249        H261   1.083       .  S
C250        H262   1.083       .  S
C251        C252   1.207   1_565  T
C252        C253   1.442       .  S
C253        C254   1.403   1_545  A
C253        C258   1.399       .  A
C254        C255   1.403       .  A
C254        H263   1.083       .  S
C255        C256   1.405   1_565  A
C255        H264   1.083       .  S
C256        C257   1.404       .  A
C257        C258   1.395       .  A
C257        H265   1.083       .  S
C258        H266   1.084       .  S
C267        C268   1.409   1_565  A
C267        C272   1.409       .  A
C268        C269   1.399       .  A
C268        H281   1.083       .  S
C269        C270   1.399   1_545  A
C269        H282   1.083       .  S
C270        C271   1.401       .  A
C270        C273   1.443       .  S
C271        C272   1.400       .  A
C271        H283   1.084       .  S
C272        H284   1.083       .  S
C273        C274   1.208       .  T
C274        C275   1.443       .  S
C275        C276   1.398       .  A
C275        C280   1.404   1_565  A
C276        C277   1.394       .  A
C276        H285   1.084       .  S
C277        C278   1.403       .  A
C277        H286   1.084       .  S
C278        C279   1.404   1_565  A
C279        C280   1.404       .  A
C279        H287   1.083       .  S
C280        H288   1.083       .  S
C289        C290   1.411       .  A
C289        C294   1.408   1_565  A
C290        C291   1.400       .  A
C290        H303   1.083       .  S
C291        C292   1.399       .  A
C291        H304   1.083       .  S
C292        C293   1.401   1_565  A
C292        C295   1.442       .  S
C293        C294   1.399       .  A
C293        H305   1.084       .  S
C294        H306   1.083       .  S
C295        C296   1.207       .  T
C296        C297   1.441   1_565  S
C297        C298   1.398       .  A
C297        C302   1.403   1_545  A
C298        C299   1.394       .  A
C298        H307   1.084       .  S
C299        C300   1.403       .  A
C299        H308   1.083       .  S
C300        C301   1.405   1_545  A
C301        C302   1.403       .  A
C301        H309   1.083       .  S
C302        H310   1.083       .  S
