geometry optimzed in LAMMPS
_audit_creation_date              2020-12-01 
_audit_creation_method            'lammps2cif' 
_symmetry_space_group_name_H-M    'P1' 
_symmetry_Int_Tables_number       1 
_symmetry_cell_setting            triclinic 
loop_ 
_symmetry_equiv_pos_as_xyz 
  x,y,z 
_cell_length_a                    26.83548021 
_cell_length_b                    40.30716817576069 
_cell_length_c                    24.96021560984594 
_cell_angle_alpha                 90.0126206428636 
_cell_angle_beta                  89.63982367599078 
_cell_angle_gamma                 89.95367298187224 
loop_ 
_atom_site_label 
_atom_site_type_symbol 
_atom_site_fract_x 
_atom_site_fract_y 
_atom_site_fract_z 
_atom_site_charge 
C1          C  0.01323482  0.51645932  0.94629150     0.04000
C2          C  0.00786586  0.48163352  0.94776044     0.04000
C3          C  0.00735778  0.46513695  0.99737764    -0.16500
C4          C  0.00980047  0.48301235  0.04563237     0.04000
C5          C  0.01053088  0.51799489  0.04431040     0.04000
C6          C  0.01344433  0.53443229  0.99464864    -0.16500
H7          H  0.01565137  0.56128665  0.99362460     0.06000
H8          H  0.00496816  0.43828290  0.99844500     0.06000
Fe9        Fe  0.00072929  0.22822545  0.49825647     1.65800
Fe10       Fe  0.06402383  0.30066073  0.51558150     1.73200
Fe11       Fe  0.94108867  0.30184031  0.47679396     1.54400
O12         O  0.93240517  0.27281976  0.40822498    -0.79900
O13         O  0.02630175  0.33357363  0.56457629    -0.78200
O14         O  0.97909746  0.22701340  0.41982601    -0.82400
O15         O  0.92784735  0.22347408  0.52296907    -0.77300
O16         O  0.97967743  0.33503325  0.42949950    -0.79100
O17         O  0.07458503  0.27109311  0.58330465    -0.81800
C18         C  0.89041362  0.24196121  0.52964230     0.99000
C19         C  0.95128877  0.24557607  0.39175332     1.06400
O20         O  0.00188804  0.27700237  0.49687641    -1.10800
O21         O  0.11093460  0.27068477  0.47026740    -0.73200
O22         O  0.07354356  0.22171323  0.47387833    -0.76700
O23         O  0.89119091  0.27265134  0.51937079    -0.77400
C24         C  0.11090993  0.23958970  0.46330176     0.97900
O25         O  0.02238692  0.22778330  0.57663850    -0.75400
O26         O  0.06030560  0.33236592  0.44979846    -0.80600
C27         C  0.98144680  0.34223577  0.57269279     1.00500
C28         C  0.02458710  0.34332962  0.42173213     1.06400
O29         O  0.94536171  0.33247452  0.54387133    -0.76200
C30         C  0.05400844  0.24501511  0.60198872     1.04700
N31         N  0.42625016  0.00073567  0.50028755    -0.34900
N32         N  0.50373920  0.95018224  0.50201971    -0.55400
N33         N  0.57937901  0.00180013  0.50506485    -0.34900
N34         N  0.50200974  0.05235201  0.49778401    -0.55400
C35         C  0.39851572  0.97292168  0.49457048     0.28700
C36         C  0.39817949  0.02680472  0.48395682     0.28700
C37         C  0.60819747  0.97534327  0.49176587     0.28700
C38         C  0.60735184  0.02945271  0.49849465     0.28700
C39         C  0.46410075  0.93061696  0.51322067     0.37300
C40         C  0.54481660  0.93094336  0.50668599     0.37300
C41         C  0.46074261  0.07166430  0.49882411     0.37300
C42         C  0.54089751  0.07219127  0.51018865     0.37300
C43         C  0.35190007  0.98139444  0.47518202    -0.20100
C44         C  0.35181131  0.01532115  0.46806948    -0.20100
C45         C  0.65527520  0.98643046  0.47700604    -0.20100
C46         C  0.65485625  0.02052505  0.48170769    -0.20100
C47         C  0.48012252  0.89868754  0.52478839    -0.21200
C48         C  0.53117846  0.89883254  0.52017882    -0.21200
C49         C  0.47358707  0.10409404  0.51102403    -0.21200
C50         C  0.52425733  0.10437526  0.51871320    -0.21200
C51         C  0.41363486  0.94033663  0.50832834    -0.16500
C52         C  0.41202473  0.06075681  0.48653450    -0.16500
C53         C  0.59153503  0.06233971  0.50922406    -0.16500
C54         C  0.59414274  0.94148896  0.49595741    -0.16500
H55         H  0.32118068  0.96483279  0.46683500     0.16400
H56         H  0.32076441  0.02991724  0.45371663     0.16400
H57         H  0.68693244  0.97148692  0.46490619     0.16400
H58         H  0.68590407  0.03689855  0.47338487     0.16400
H59         H  0.45735510  0.87727496  0.53410984     0.14600
H60         H  0.55545662  0.87768689  0.52591645     0.14600
H61         H  0.44901924  0.12533166  0.51410149     0.14600
H62         H  0.54643769  0.12599350  0.52814979     0.14600
H63         H  0.46013394  0.00200967  0.51981964     0.27900
H64         H  0.54457068  0.00106206  0.52324623     0.27900
Fe65       Fe  0.00103760  0.76986107  0.50157954     1.65800
Fe66       Fe  0.94359978  0.69500398  0.52040953     1.73200
Fe67       Fe  0.06432325  0.69836146  0.47326412     1.54400
O68         O  0.06692428  0.72790780  0.40444097    -0.79900
O69         O  0.98586316  0.66079000  0.56182189    -0.78200
O70         O  0.02065812  0.77317261  0.42236981    -0.82400
O71         O  0.07410525  0.77644180  0.52382462    -0.77300
O72         O  0.02551105  0.66398393  0.42889012    -0.79100
O73         O  0.93716828  0.72150182  0.59201859    -0.81800
C74         C  0.11342421  0.75932335  0.52527194     0.99000
C75         C  0.04700667  0.75544103  0.39108346     1.06400
O76         O  0.00296695  0.72107993  0.49840166    -1.10800
O77         O  0.89092811  0.72542825  0.48442446    -0.73200
O78         O  0.92752877  0.77464741  0.48032754    -0.76700
O79         O  0.11461949  0.72912065  0.51169160    -0.77400
C80         C  0.88972347  0.75634993  0.47563083     0.97900
O81         O  0.98113206  0.76847941  0.58068657    -0.75400
O82         O  0.94484419  0.66641186  0.45060963    -0.80600
C83         C  0.03164499  0.65446477  0.56868986     1.00500
C84         C  0.98054899  0.65582634  0.42150389     1.06400
O85         O  0.06616406  0.66736148  0.54034513    -0.76200
C86         C  0.95500552  0.74885007  0.60897176     1.04700
N87         N  0.98960832  0.00232476  0.07597753    -0.34900
N88         N  0.99581981  0.94980594  0.99586368    -0.55400
N89         N  0.99916253  0.99892684  0.91124272    -0.34900
N90         N  0.99904291  0.05133223  0.99176612    -0.55400
C91         C  0.99961799  0.97622564  0.10823215     0.28700
C92         C  0.99346322  0.03018136  0.10577437     0.28700
C93         C  0.00517962  0.97091091  0.88215677     0.28700
C94         C  0.01505870  0.02461884  0.88076541     0.28700
C95         C  0.98957429  0.93122253  0.04039385     0.37300
C96         C  0.98692933  0.92959967  0.95383047     0.37300
C97         C  0.98704806  0.07194141  0.03251185     0.37300
C98         C  0.00014903  0.07008012  0.94698161     0.37300
C99         C  0.00913981  0.98766631  0.15962403    -0.20100
C100        C  0.00478388  0.02174056  0.15816667    -0.20100
C101        C  0.02377456  0.97887905  0.83183897    -0.20100
C102        C  0.03043403  0.01278372  0.83110461    -0.21300
C103        C  0.97751078  0.89889531  0.02660151    -0.21200
C104        C  0.97541981  0.89792445  0.97179221    -0.21200
C105        C  0.98091364  0.10403503  0.01353533    -0.21200
C106        C  0.98961668  0.10289669  0.95942769    -0.21200
C107        C  0.99732916  0.94240871  0.09320973    -0.16500
C108        C  0.98551121  0.06281844  0.08706049    -0.16500
C109        C  0.01347994  0.05849798  0.89555273    -0.16500
C110        C  0.99290926  0.93857733  0.89952341    -0.16500
H111        H  0.01744372  0.97297663  0.19475482     0.16400
H112        H  0.00968558  0.03840070  0.19174062     0.16400
H113        H  0.03208369  0.96199797  0.79924784     0.16400
H114        H  0.04434766  0.02711776  0.79754367     0.16400
H115        H  0.97080682  0.87817103  0.05325919     0.14600
H116        H  0.96735615  0.87617708  0.94794289     0.14600
H117        H  0.97226222  0.12614349  0.03639889     0.14600
H118        H  0.98839385  0.12386309  0.93237431     0.14600
H119        H  0.97574565  0.00115658  0.03739327     0.27900
H120        H  0.98046093  0.00057686  0.94758814     0.27900
C121        C  0.04755543  0.81019953  0.25813627     0.18800
C122        C  0.07823115  0.83828916  0.25936541    -0.10300
C123        C  0.06742333  0.86566406  0.22713154    -0.11200
C124        C  0.02575303  0.86514448  0.19370382     0.20300
C125        C  0.99595940  0.83664849  0.19106178    -0.13200
C126        C  0.00674328  0.80924460  0.22339907    -0.11500
C127        C  0.01364239  0.89389623  0.16232004     0.01300
C128        C  0.00499408  0.91717097  0.13356237    -0.31500
C129        C  0.05369966  0.78481813  0.29800712     0.02700
C130        C  0.05400586  0.76808810  0.33797585    -0.33200
H131        H  0.10943181  0.83949163  0.28663510     0.13700
H132        H  0.09086228  0.88749590  0.22917651     0.13600
H133        H  0.96383363  0.83592091  0.16500554     0.13400
H134        H  0.98234523  0.78784558  0.22268854     0.12400
C135        C  0.97110497  0.85976682  0.80029011     0.18800
C136        C  0.01035118  0.83842263  0.78669360    -0.10300
C137        C  0.00105389  0.80985059  0.75674180    -0.11200
C138        C  0.95245785  0.80240853  0.74046129     0.20300
C139        C  0.91304857  0.82351918  0.75465740    -0.13200
C140        C  0.92234802  0.85210574  0.78474898    -0.11500
C141        C  0.94491114  0.77616940  0.70250960     0.01300
C142        C  0.94544804  0.75936289  0.66270488    -0.31500
C143        C  0.98074437  0.88915338  0.83106806     0.02700
C144        C  0.98761952  0.91263460  0.85992153    -0.33200
H145        H  0.04815039  0.84408599  0.79862890     0.13700
H146        H  0.03194662  0.79407920  0.74492315     0.13600
H147        H  0.87551387  0.81838686  0.74125236     0.13400
H148        H  0.89172301  0.86843955  0.79524498     0.12400
C149        C  0.30867731  0.86724280  0.53051704     0.18800
C150        C  0.31272056  0.83751409  0.50161240    -0.10300
C151        C  0.27639631  0.81276648  0.50734865    -0.11200
C152        C  0.23577122  0.81747105  0.54218905     0.20300
C153        C  0.23237305  0.84689584  0.57203414    -0.13200
C154        C  0.26869755  0.87165309  0.56627950    -0.11500
C155        C  0.19539505  0.79365378  0.54345196     0.01300
C156        C  0.15911213  0.77603572  0.53908327    -0.31500
C157        C  0.34483105  0.89341464  0.52250012     0.02700
C158        C  0.37544251  0.91504760  0.51548252    -0.33200
H159        H  0.34343544  0.83372260  0.47389773     0.13700
H160        H  0.27935628  0.79032569  0.48364383     0.13600
H161        H  0.20101407  0.85104882  0.59875210     0.13400
H162        H  0.26509676  0.89446235  0.58894995     0.12400
C163        C  0.76776703  0.81524036  0.46284991     0.18800
C164        C  0.73153777  0.81391616  0.50357268    -0.10300
C165        C  0.69647990  0.83953453  0.50923193    -0.11200
C166        C  0.69736965  0.86683025  0.47437044     0.20300
C167        C  0.73306239  0.86790116  0.43308021    -0.13200
C168        C  0.76812920  0.84226484  0.42740711    -0.11500
C169        C  0.66222054  0.89383971  0.48158724     0.01300
C170        C  0.63216128  0.91596278  0.48824841    -0.31500
C171        C  0.80705351  0.79054327  0.46051796     0.02700
C172        C  0.84309099  0.77251357  0.46353888    -0.33200
H173        H  0.73102297  0.79342427  0.53164935     0.13700
H174        H  0.66915211  0.83829413  0.54130189     0.13600
H175        H  0.73426955  0.88877899  0.40578010     0.13400
H176        H  0.79615447  0.84386786  0.39608727     0.12400
C177        C  0.95856717  0.14100330  0.18678045     0.18800
C178        C  0.99222946  0.16754145  0.18707150    -0.10300
C179        C  0.98421604  0.19445471  0.22137680    -0.11200
C180        C  0.94234211  0.19495703  0.25517560     0.20300
C181        C  0.90776460  0.16898236  0.25339433    -0.13200
C182        C  0.91580339  0.14206802  0.21914711    -0.11500
C183        C  0.93899473  0.21905918  0.29734210     0.01300
C184        C  0.94128723  0.23440885  0.33856898    -0.31500
C185        C  0.96862940  0.11232580  0.15439036     0.02700
C186        C  0.97702845  0.08892648  0.12576034    -0.33200
H187        H  0.02532700  0.16695954  0.16199602     0.13700
H188        H  0.01160396  0.21415896  0.22309396     0.13600
H189        H  0.87571558  0.16889294  0.28001540     0.13400
H190        H  0.88949531  0.12169324  0.21904417     0.12400
C191        C  0.07088508  0.19057429  0.73290352     0.18800
C192        C  0.09445414  0.16026696  0.72191225    -0.10300
C193        C  0.08526485  0.13269888  0.75439954    -0.11200
C194        C  0.05233004  0.13532380  0.79787358     0.20300
C195        C  0.03028319  0.16595552  0.81019062    -0.13200
C196        C  0.03941458  0.19353632  0.77762064    -0.11500
C197        C  0.03954831  0.10640222  0.82859855     0.01300
C198        C  0.02760871  0.08333159  0.85649265    -0.31500
C199        C  0.07249269  0.21645895  0.69344309     0.02700
C200        C  0.06740998  0.23317679  0.65393041    -0.33200
H201        H  0.11817154  0.15756818  0.68688460     0.13700
H202        H  0.10252831  0.10913744  0.74462431     0.13600
H203        H  0.00481199  0.16822682  0.84385236     0.13400
H204        H  0.02033925  0.21669123  0.78593999     0.12400
C205        C  0.76763373  0.18521844  0.54908643     0.18800
C206        C  0.72592450  0.19108813  0.51685159    -0.10300
C207        C  0.68989921  0.16632069  0.50998065    -0.11200
C208        C  0.69538174  0.13542799  0.53509933     0.20300
C209        C  0.73648528  0.12981425  0.56831600    -0.13200
C210        C  0.77250315  0.15458880  0.57520818    -0.11500
C211        C  0.65958854  0.10930837  0.52566409     0.01300
C212        C  0.62931324  0.08768621  0.51751711    -0.31500
C213        C  0.80784232  0.20906125  0.55066354     0.02700
C214        C  0.84437350  0.22636045  0.54555038    -0.33200
H215        H  0.72192520  0.21446670  0.49590112     0.13700
H216        H  0.65831921  0.17102238  0.48423191     0.13600
H217        H  0.74121365  0.10607852  0.58800487     0.13400
H218        H  0.80480132  0.14953632  0.59972952     0.12400
C219        C  0.30690425  0.13299903  0.45704289     0.18800
C220        C  0.26560068  0.12660796  0.42443611    -0.10300
C221        C  0.22881455  0.15092923  0.41721412    -0.11200
C222        C  0.23305269  0.18190604  0.44242968     0.20300
C223        C  0.27494860  0.18856600  0.47396800    -0.13200
C224        C  0.31171128  0.16425819  0.48119081    -0.11500
C225        C  0.19222056  0.20538991  0.44082605     0.01300
C226        C  0.15596316  0.22296449  0.44648631    -0.31500
C227        C  0.34352056  0.10729035  0.46695753     0.02700
C228        C  0.37418638  0.08592593  0.47592854    -0.33200
H229        H  0.26131273  0.10260267  0.40549729     0.13700
H230        H  0.19643681  0.14524860  0.39318985     0.13600
H231        H  0.27852344  0.21222508  0.49418721     0.13400
H232        H  0.34335896  0.16961418  0.50649081     0.12400
C233        C  0.03404215  0.39941707  0.28645956     0.18800
C234        C  0.04892557  0.43267201  0.28203512    -0.10300
C235        C  0.04391457  0.44954558  0.23316829    -0.11200
C236        C  0.02379114  0.43333260  0.18846898     0.20300
C237        C  0.00940501  0.40002840  0.19284484    -0.13200
C238        C  0.01447295  0.38317949  0.24156736    -0.11500
C239        C  0.01759570  0.45074698  0.13824395     0.01300
C240        C  0.01289230  0.46515170  0.09601948    -0.31500
C241        C  0.03683082  0.38200760  0.33709516     0.02700
C242        C  0.03459819  0.36543020  0.37749033    -0.33200
H243        H  0.06396439  0.44560640  0.31636591     0.13700
H244        H  0.05542456  0.47524192  0.23034255     0.13600
H245        H  0.99392791  0.38714067  0.15868940     0.13400
H246        H  0.00265035  0.35753928  0.24437556     0.12400
C247        C  0.97286716  0.39575651  0.71081526     0.18800
C248        C  0.99454166  0.37965496  0.75472999    -0.10300
C249        C  0.00089082  0.39649736  0.80331008    -0.11200
C250        C  0.98568295  0.42962628  0.80844093     0.20300
C251        C  0.96310973  0.44556334  0.76488342    -0.13200
C252        C  0.95677591  0.42870595  0.71622963    -0.11500
C253        C  0.99424095  0.44740827  0.85788334     0.01300
C254        C  0.00137760  0.46260902  0.89894040    -0.31500
C255        C  0.96974718  0.37884398  0.65978593     0.02700
C256        C  0.97182500  0.36323083  0.61839858    -0.33200
H257        H  0.00729992  0.35423577  0.75114342     0.13700
H258        H  0.01828759  0.38383308  0.83660485     0.13600
H259        H  0.95103710  0.47113407  0.76829902     0.13400
H260        H  0.94009601  0.44151207  0.68266012     0.12400
C261        C  0.97576207  0.60099441  0.28472727     0.18800
C262        C  0.97902130  0.61924326  0.23696295    -0.10300
C263        C  0.98703979  0.60306907  0.18792184    -0.11200
C264        C  0.99202008  0.56845727  0.18610528     0.20300
C265        C  0.98844869  0.55014187  0.23379693    -0.13200
C266        C  0.98049228  0.56633578  0.28290266    -0.11500
C267        C  0.00055989  0.55176974  0.13544976     0.01300
C268        C  0.00649685  0.53715360  0.09347309    -0.31500
C269        C  0.97042430  0.61814990  0.33551648     0.02700
C270        C  0.97086270  0.63431617  0.37646251    -0.33200
H271        H  0.97588395  0.64603878  0.23769466     0.13700
H272        H  0.98962821  0.61757754  0.15148002     0.13600
H273        H  0.99204063  0.52337727  0.23305500     0.13400
H274        H  0.97849633  0.55187129  0.31942487     0.12400
C275        C  0.04408829  0.59800518  0.70344165     0.18800
C276        C  0.02987546  0.56450079  0.70472098    -0.10300
C277        C  0.02429408  0.54791615  0.75386210    -0.11200
C278        C  0.03264705  0.56469878  0.80225832     0.20300
C279        C  0.04736279  0.59807740  0.80094827    -0.13200
C280        C  0.05296676  0.61464243  0.75184927    -0.11500
C281        C  0.02531008  0.54794702  0.85313850     0.01300
C282        C  0.01916779  0.53396352  0.89567936    -0.31500
C283        C  0.04647137  0.61592771  0.65302440     0.02700
C284        C  0.04372546  0.63252216  0.61259762    -0.33200
H285        H  0.02242710  0.55132631  0.66780068     0.13700
H286        H  0.01292599  0.52213309  0.75412289     0.13600
H287        H  0.05394579  0.61142285  0.83791043     0.13400
H288        H  0.06352194  0.64057912  0.75168792     0.12400
loop_ 
_geom_bond_atom_site_label_1 
_geom_bond_atom_site_label_2 
_geom_bond_distance 
_geom_bond_site_symmetry_2 
_ccdc_geom_bond_type 
C1            C2   1.412       .  A
C1            C6   1.408       .  A
C1          C282   1.455       .  S
C2            C3   1.406       .  A
C2          C254   1.451       .  S
C3            C4   1.405   1_556  A
C3            H8   1.085       .  S
C4            C5   1.411       .  A
C4          C240   1.452       .  S
C5            C6   1.407   1_554  A
C5          C268   1.453       .  S
C6            H7   1.084       .  S
Fe9          O25   2.045       .  S
Fe9          O15   2.056   1_455  S
Fe9          O22   2.059       .  S
Fe9          O14   2.046   1_455  S
Fe9          O20   1.967       .  S
Fe10         O13   2.064       .  S
Fe10         O17   2.089       .  S
Fe10         O21   2.074       .  S
Fe10         O26   2.084       .  S
Fe10         O20   1.980       .  S
Fe11         O29   2.084       .  S
Fe11         O16   2.060       .  S
Fe11         O23   2.072       .  S
Fe11         O12   2.087       .  S
Fe11         O20   1.981   1_655  S
O12          C19   1.276       .  A
O13          C27   1.268   1_455  A
O14          C19   1.270       .  A
O15          C18   1.260       .  A
O16          C28   1.265   1_655  A
O17          C30   1.275       .  A
C18         C214   1.440       .  S
C18          O23   1.264       .  A
C19         C184   1.429       .  S
O21          C24   1.265       .  A
O22          C24   1.262       .  A
C24         C226   1.442       .  S
O25          C30   1.269       .  A
O26          C28   1.270       .  A
C27         C256   1.442       .  S
C27          O29   1.273       .  A
C28         C242   1.443       .  S
C30         C200   1.430       .  S
N31          C36   1.357       .  A
N31          C35   1.354   1_545  A
N31          H63   1.036       .  S
N32          C39   1.353       .  A
N32          C40   1.353       .  A
N33          C38   1.354       .  A
N33          C37   1.357   1_545  A
N33          H64   1.036       .  S
N34          C41   1.353       .  A
N34          C42   1.353       .  A
C35          C43   1.387       .  A
C35          C51   1.417       .  A
C36          C52   1.420       .  A
C36          C44   1.388       .  A
C37          C45   1.388       .  A
C37          C54   1.420       .  A
C38          C53   1.417       .  A
C38          C46   1.387       .  A
C39          C51   1.416       .  A
C39          C47   1.388       .  A
C40          C54   1.415       .  A
C40          C48   1.386       .  A
C41          C49   1.386       .  A
C41          C52   1.415       .  A
C42          C50   1.388       .  A
C42          C53   1.415       .  A
C43          C44   1.379   1_565  A
C43          H55   1.082       .  S
C44          H56   1.082       .  S
C45          C46   1.379   1_565  A
C45          H57   1.082       .  S
C46          H58   1.082       .  S
C47          C48   1.374       .  A
C47          H59   1.082       .  S
C48          H60   1.082       .  S
C49          C50   1.374       .  A
C49          H61   1.082       .  S
C50          H62   1.082       .  S
C51         C158   1.456       .  S
C52         C228   1.460       .  S
C53         C212   1.456       .  S
C54         C170   1.460       .  S
Fe65         O81   2.043   1_455  S
Fe65         O71   2.059       .  S
Fe65         O78   2.055   1_455  S
Fe65         O70   2.047       .  S
Fe65         O76   1.968       .  S
Fe66         O69   2.066       .  S
Fe66         O73   2.088       .  S
Fe66         O77   2.079       .  S
Fe66         O82   2.089       .  S
Fe66         O76   1.984   1_655  S
Fe67         O85   2.090       .  S
Fe67         O72   2.061       .  S
Fe67         O79   2.073       .  S
Fe67         O68   2.091       .  S
Fe67         O76   1.982       .  S
O68          C75   1.277       .  A
O69          C83   1.267   1_655  A
O70          C75   1.270       .  A
O71          C74   1.261       .  A
O72          C84   1.265   1_455  A
O73          C86   1.275       .  A
C74         C156   1.443       .  S
C74          O79   1.264       .  A
C75         C130   1.432       .  S
O77          C80   1.266       .  A
O78          C80   1.261       .  A
C80         C172   1.444       .  S
O81          C86   1.269       .  A
O82          C84   1.272       .  A
C83         C284   1.447       .  S
C83          O85   1.273       .  A
C84         C270   1.445       .  S
C86         C142   1.428       .  S
N87          C92   1.351       .  A
N87          C91   1.353   1_545  A
N87         H119   1.036       .  S
N88          C95   1.350   1_556  A
N88          C96   1.351       .  A
N89          C94   1.353   1_665  A
N89          C93   1.351   1_655  A
N89         H120   1.036   1_565  S
N90          C97   1.350   1_556  A
N90          C98   1.350   1_655  A
C91          C99   1.388   1_655  A
C91         C107   1.415       .  A
C92         C108   1.413       .  A
C92         C100   1.387   1_655  A
C93         C101   1.386       .  A
C93         C110   1.412   1_455  A
C94         C109   1.415       .  A
C94         C102   1.388       .  A
C95         C107   1.410       .  A
C95         C103   1.387       .  A
C96         C110   1.411       .  A
C96         C104   1.388       .  A
C97         C105   1.388       .  A
C97         C108   1.411       .  A
C98         C106   1.387   1_455  A
C98         C109   1.410       .  A
C99         C100   1.379   1_565  A
C99         H111   1.082       .  S
C100        H112   1.082       .  S
C101        C102   1.378   1_565  A
C101        H113   1.082       .  S
C102        H114   1.082       .  S
C103        C104   1.370   1_554  A
C103        H115   1.083       .  S
C104        H116   1.082       .  S
C105        C106   1.370   1_554  A
C105        H117   1.082       .  S
C106        H118   1.082       .  S
C107        C128   1.447   1_655  S
C108        C186   1.445       .  S
C109        C198   1.447       .  S
C110        C144   1.446       .  S
C121        C122   1.401       .  A
C121        C126   1.402       .  A
C121        C129   1.438       .  S
C122        C123   1.397       .  A
C122        H131   1.083       .  S
C123        C124   1.400       .  A
C123        H132   1.083       .  S
C124        C125   1.402   1_455  A
C124        C127   1.437       .  S
C125        C126   1.399   1_655  A
C125        H133   1.084       .  S
C126        H134   1.084   1_455  S
C127        C128   1.205       .  T
C129        C130   1.204       .  T
C135        C136   1.399   1_655  A
C135        C140   1.402       .  A
C135        C143   1.436       .  S
C136        C137   1.396       .  A
C136        H145   1.083       .  S
C137        C138   1.401   1_455  A
C137        H146   1.084       .  S
C138        C139   1.401       .  A
C138        C141   1.435       .  S
C139        C140   1.399       .  A
C139        H147   1.083       .  S
C140        H148   1.083       .  S
C141        C142   1.202       .  T
C143        C144   1.204       .  T
C149        C150   1.402       .  A
C149        C154   1.403       .  A
C149        C157   1.447       .  S
C150        C151   1.402       .  A
C150        H159   1.083       .  S
C151        C152   1.403       .  A
C151        H160   1.083       .  S
C152        C153   1.403       .  A
C152        C155   1.448       .  S
C153        C154   1.402       .  A
C153        H161   1.083       .  S
C154        H162   1.083       .  S
C155        C156   1.211       .  T
C157        C158   1.210       .  T
C163        C164   1.403       .  A
C163        C168   1.403       .  A
C163        C171   1.450       .  S
C164        C165   1.403       .  A
C164        H173   1.083       .  S
C165        C166   1.403       .  A
C165        H174   1.083       .  S
C166        C167   1.403       .  A
C166        C169   1.450       .  S
C167        C168   1.404       .  A
C167        H175   1.083       .  S
C168        H176   1.083       .  S
C169        C170   1.213       .  T
C171        C172   1.212       .  T
C177        C178   1.401       .  A
C177        C182   1.400       .  A
C177        C185   1.435       .  S
C178        C179   1.398       .  A
C178        H187   1.084   1_655  S
C179        C180   1.401       .  A
C179        H188   1.084   1_655  S
C180        C181   1.400       .  A
C180        C183   1.435       .  S
C181        C182   1.397       .  A
C181        H189   1.084       .  S
C182        H190   1.083       .  S
C183        C184   1.203       .  T
C185        C186   1.203       .  T
C191        C192   1.401       .  A
C191        C196   1.400       .  A
C191        C199   1.435       .  S
C192        C193   1.397       .  A
C192        H201   1.084       .  S
C193        C194   1.399       .  A
C193        H202   1.083       .  S
C194        C195   1.402       .  A
C194        C197   1.436       .  S
C195        C196   1.398       .  A
C195        H203   1.084       .  S
C196        H204   1.084       .  S
C197        C198   1.204       .  T
C199        C200   1.203       .  T
C205        C206   1.403       .  A
C205        C210   1.403       .  A
C205        C213   1.446       .  S
C206        C207   1.402       .  A
C206        H215   1.083       .  S
C207        C208   1.402       .  A
C207        H216   1.083       .  S
C208        C209   1.402       .  A
C208        C211   1.446       .  S
C209        C210   1.402       .  A
C209        H217   1.083       .  S
C210        H218   1.083       .  S
C211        C212   1.210       .  T
C213        C214   1.210       .  T
C219        C220   1.403       .  A
C219        C224   1.403       .  A
C219        C227   1.450       .  S
C220        C221   1.403       .  A
C220        H229   1.083       .  S
C221        C222   1.403       .  A
C221        H230   1.083       .  S
C222        C223   1.403       .  A
C222        C225   1.448       .  S
C223        C224   1.402       .  A
C223        H231   1.083       .  S
C224        H232   1.083       .  S
C225        C226   1.211       .  T
C227        C228   1.213       .  T
C233        C234   1.403       .  A
C233        C238   1.403       .  A
C233        C241   1.448       .  S
C234        C235   1.404       .  A
C234        H243   1.083       .  S
C235        C236   1.404       .  A
C235        H244   1.083       .  S
C236        C237   1.401       .  A
C236        C239   1.447       .  S
C237        C238   1.400       .  A
C237        H245   1.083   1_455  S
C238        H246   1.083       .  S
C239        C240   1.211       .  T
C241        C242   1.211       .  T
C247        C248   1.403       .  A
C247        C252   1.402       .  A
C247        C255   1.447       .  S
C248        C249   1.401   1_655  A
C248        H257   1.084   1_655  S
C249        C250   1.402   1_455  A
C249        H258   1.083       .  S
C250        C251   1.403       .  A
C250        C253   1.447       .  S
C251        C252   1.403       .  A
C251        H259   1.083       .  S
C252        H260   1.083       .  S
C253        C254   1.210   1_655  T
C255        C256   1.210       .  T
C261        C262   1.403       .  A
C261        C266   1.403       .  A
C261        C269   1.450       .  S
C262        C263   1.402       .  A
C262        H271   1.083       .  S
C263        C264   1.402       .  A
C263        H272   1.083       .  S
C264        C265   1.404       .  A
C264        C267   1.449   1_655  S
C265        C266   1.404       .  A
C265        H273   1.083       .  S
C266        H274   1.083       .  S
C267        C268   1.211       .  T
C269        C270   1.212       .  T
C275        C276   1.404       .  A
C275        C280   1.404       .  A
C275        C283   1.452       .  S
C276        C277   1.404       .  A
C276        H285   1.083       .  S
C277        C278   1.404       .  A
C277        H286   1.083       .  S
C278        C279   1.403       .  A
C278        C281   1.451       .  S
C279        C280   1.403       .  A
C279        H287   1.083       .  S
C280        H288   1.083       .  S
C281        C282   1.213       .  T
C283        C284   1.213       .  T
