geometry optimzed in LAMMPS
_audit_creation_date              2020-12-01 
_audit_creation_method            'lammps2cif' 
_symmetry_space_group_name_H-M    'P1' 
_symmetry_Int_Tables_number       1 
_symmetry_cell_setting            triclinic 
loop_ 
_symmetry_equiv_pos_as_xyz 
  x,y,z 
_cell_length_a                    26.93299438 
_cell_length_b                    26.983492258582697 
_cell_length_c                    28.76517124466256 
_cell_angle_alpha                 89.29995165480832 
_cell_angle_beta                  91.11549406038064 
_cell_angle_gamma                 79.8290730556545 
loop_ 
_atom_site_label 
_atom_site_type_symbol 
_atom_site_fract_x 
_atom_site_fract_y 
_atom_site_fract_z 
_atom_site_charge 
C1          C  0.16746316  0.97964504  0.09489375     0.43100
N2          N  0.08925561  0.97862723  0.08064724     0.02000
C3          C  0.98568648  0.89085499  0.88137694    -0.05900
H4          H  0.09097551  0.03255423  0.85200471     0.07500
C5          C  0.96663251  0.14981436  0.94700302    -0.06200
Co6        Co  0.07391449  0.92131746  0.99448352     0.74200
N7          N  0.07538972  0.98949504  0.91211080    -0.25400
Co8        Co  0.99727212  0.99791459  0.91449749     0.74100
C9          C  0.99293782  0.15326039  0.90359703     0.43200
N10         N  0.97470997  0.09403807  0.05628180     0.01600
N11         N  0.99049784  0.07587784  0.91839104     0.01700
N12         N  0.03554329  0.84188219  0.93448632    -0.46300
H13         H  0.19182809  0.93405507  0.02945887     0.07500
N14         N  0.10475577  0.96051333  0.94257957     0.02000
N15         N  0.91928050  0.00612185  0.91893127     0.01700
C16         C  0.84139375  0.00537746  0.90403049     0.43300
N17         N  0.00376988  0.06496513  0.08690688    -0.24900
C18         C  0.04218711  0.83463131  0.05342227    -0.05800
N19         N  0.12050576  0.99441510  0.11099240    -0.46000
N20         N  0.88837438  0.99065699  0.88816483    -0.46200
C21         C  0.01615969  0.83133516  0.09699056     0.43100
N22         N  0.03323474  0.89040675  0.94300596     0.02000
N23         N  0.93252144  0.99565704  0.08778314    -0.24900
N24         N  0.11299803  0.95383428  0.04592964    -0.25400
N25         N  0.90329293  0.02441350  0.05703444     0.01600
H26         H  0.91642782  0.95464564  0.14906156     0.07500
H27         H  0.81620391  0.05085565  0.96926361     0.07600
N28         N  0.00445713  0.91977975  0.91239101    -0.25400
N29         N  0.96678493  0.10049712  0.95318560    -0.25000
N30         N  0.01775675  0.90880055  0.08145462     0.02000
C31         C  0.15579499  0.98773229  0.89670871     0.43400
C32         C  0.02318026  0.09422469  0.11716153    -0.06300
N33         N  0.89528022  0.03079160  0.95357873    -0.25000
H34         H  0.94889781  0.17946717  0.96930759     0.07500
N35         N  0.15335554  0.95821578  0.93449711    -0.46300
H36         H  0.04738286  0.08120759  0.14689022     0.07500
C37         C  0.85186555  0.99931929  0.10386773     0.43200
C38         C  0.16272038  0.95266768  0.05182873    -0.05800
Co39       Co  0.01094953  0.98687799  0.08520956     0.73800
N40         N  0.97282782  0.14260021  0.06394373    -0.46000
C41         C  0.00624862  0.83931449  0.89627764     0.43500
N42         N  0.00231901  0.87861003  0.11262684    -0.46000
Co43       Co  0.93418368  0.06322083  0.00508626     0.73900
C44         C  0.84560216  0.03210659  0.94724752    -0.06300
C45         C  0.10434825  0.00837861  0.88156291    -0.05900
N46         N  0.04149410  0.88402183  0.04671009    -0.25400
N47         N  0.00633161  0.10614548  0.88754174    -0.46100
H48         H  0.96203017  0.90432869  0.85142416     0.07500
C49         C  0.90326716  0.97807020  0.11897606    -0.06300
Cl50       Cl  0.00404225  0.99228575  0.99983782    -0.49300
C51         C  0.00278175  0.14546256  0.10155665     0.43300
H52         H  0.06013387  0.80481350  0.03139066     0.07500
N53         N  0.85467378  0.02782966  0.06550860    -0.46000
C54         C  0.00748981  0.53193037  0.26132226     0.03800
C55         C  0.00783516  0.53230007  0.31026767    -0.12400
C56         C  0.01139301  0.48712435  0.33626559     0.01300
C57         C  0.01428171  0.44144010  0.31243266    -0.10900
C58         C  0.01306906  0.44073790  0.26370759     0.03800
C59         C  0.00925784  0.48595748  0.23855527    -0.10300
H60         H  0.00612231  0.56767571  0.32809535     0.09400
H61         H  0.01599049  0.40639740  0.33143117     0.06900
H62         H  0.00773321  0.48499080  0.20097385     0.06700
C63         C  0.00310675  0.53935294  0.73723825     0.03800
C64         C  0.00434612  0.49280037  0.75996469    -0.12400
C65         C  0.00717956  0.44825230  0.73469417     0.01300
C66         C  0.00911016  0.45063680  0.68598229    -0.10900
C67         C  0.00739322  0.49690317  0.66243363     0.03800
C68         C  0.00402724  0.54121525  0.68843683    -0.10300
H69         H  0.00262510  0.49124362  0.79751523     0.09400
H70         H  0.01088285  0.41661969  0.66612080     0.06900
H71         H  0.00327427  0.57711942  0.67106578     0.06700
C72         C  0.46383163  0.99908183  0.26382308     0.03800
C73         C  0.46451527  0.00098194  0.31268073    -0.12400
C74         C  0.51019058  0.99762177  0.33805013     0.01300
C75         C  0.55563977  0.99243806  0.31380266    -0.10900
C76         C  0.55559327  0.99108364  0.26499238     0.03800
C77         C  0.50960630  0.99441541  0.24035081    -0.10300
H78         H  0.42956626  0.00409338  0.33122008     0.09400
H79         H  0.59098453  0.99105989  0.33259606     0.06900
H80         H  0.50950422  0.99325095  0.20270060     0.06700
C81         C  0.44855296  0.01134174  0.73539137     0.03800
C82         C  0.49398750  0.00755466  0.76073774    -0.12400
C83         C  0.53964802  0.00804456  0.73816838     0.01300
C84         C  0.53964614  0.01091754  0.68939334    -0.10900
C85         C  0.49442376  0.01452361  0.66322833     0.03800
C86         C  0.44890549  0.01523627  0.68668408    -0.10300
H87         H  0.49359850  0.00386988  0.79823137     0.09400
H88         H  0.57490702  0.01067330  0.67181752     0.06900
H89         H  0.41397862  0.01668596  0.66720648     0.06700
C90         C  0.52462068  0.00638298  0.54463357     0.30400
C91         C  0.55644464  0.99661944  0.50652103    -0.35900
C92         C  0.53243653  0.99954488  0.46259294     0.16400
C93         C  0.48077188  0.01124163  0.45658147     0.22200
C94         C  0.44896776  0.02110176  0.49466831    -0.34000
C95         C  0.47296584  0.01818345  0.53856771     0.16300
O96         O  0.53885499  0.00456736  0.58882498    -0.26000
C97         C  0.49576324  0.01520161  0.61162434     0.06100
C98         C  0.45350582  0.02434910  0.58181516    -0.30900
O99         O  0.46639137  0.01179481  0.41249918    -0.22800
C100        C  0.50936687  0.00043767  0.38962626    -0.02800
C101        C  0.55175649  0.99228148  0.41933054    -0.17200
H102        H  0.59703853  0.98710155  0.51083577     0.20800
H103        H  0.40834259  0.03012455  0.49038875     0.19200
H104        H  0.41404585  0.03362691  0.59029420     0.19100
H105        H  0.59114823  0.98227115  0.41080826     0.15000
C106        C  0.01597388  0.47055522  0.54301098     0.30400
C107        C  0.02235143  0.43950949  0.50410405    -0.35900
C108        C  0.01724720  0.46423476  0.46071059     0.16400
C109        C  0.00669971  0.51591019  0.45574602     0.22200
C110        C  0.00043768  0.54705056  0.49478091    -0.34000
C111        C  0.00552014  0.52227497  0.53831142     0.16300
O112        O  0.01827253  0.45524778  0.58675386    -0.26000
C113        C  0.00926381  0.49761363  0.61084370     0.06100
C114        C  0.00111494  0.54063504  0.58227210    -0.30900
O115        O  0.00335514  0.53080245  0.41171335    -0.22800
C116        C  0.01180713  0.48805739  0.38800787    -0.02800
C117        C  0.02076968  0.44545627  0.41708261    -0.17200
H118        H  0.03041907  0.39886830  0.50743502     0.20800
H119        H  0.99196987  0.58767523  0.49145248     0.19200
H120        H  0.99235161  0.57973775  0.59201040     0.19100
H121        H  0.02901813  0.40614179  0.40801460     0.15000
C122        C  0.01016814  0.24733381  0.82363510     0.30400
C123        C  0.01983734  0.26775087  0.78027276    -0.35900
C124        C  0.01318834  0.32050804  0.77742129     0.16400
C125        C  0.99839433  0.35085796  0.81469464     0.22200
C126        C  0.98867096  0.33052313  0.85789297    -0.34000
C127        C  0.99502495  0.27796925  0.86069775     0.16300
O128        O  0.01263082  0.19917234  0.83398414    -0.26000
C129        C  0.99864242  0.19923683  0.87811750     0.06100
C130        C  0.98736370  0.24714209  0.89653554    -0.30900
O131        O  0.99456128  0.39905752  0.80451581    -0.22800
C132        C  0.00685127  0.40008314  0.75997818    -0.02800
C133        C  0.01880092  0.35202681  0.74126950    -0.17200
H134        H  0.03126822  0.24423013  0.75078491     0.20800
H135        H  0.97660040  0.35409525  0.88719530     0.19200
H136        H  0.97453276  0.25774834  0.93103528     0.19100
H137        H  0.03041327  0.34148149  0.70644748     0.15000
C138        C  0.01168944  0.71593128  0.85703221     0.30400
C139        C  0.02438064  0.66319717  0.85898539    -0.35900
C140        C  0.01191859  0.63786052  0.81929066     0.16400
C141        C  0.98903101  0.66263094  0.78015933     0.22200
C142        C  0.97589138  0.71535005  0.77836161    -0.34000
C143        C  0.98795165  0.74069875  0.81821101     0.16300
O144        O  0.02088445  0.74716544  0.88975542    -0.26000
C145        C  0.00240992  0.79252218  0.87182757     0.06100
C146        C  0.98134035  0.79081240  0.82744899    -0.30900
O147        O  0.98261562  0.63154580  0.74638849    -0.22800
C148        C  0.00116378  0.58609983  0.76421187    -0.02800
C149        C  0.01980951  0.58787548  0.80961470    -0.17200
H150        H  0.04310723  0.64333548  0.88916560     0.20800
H151        H  0.95800143  0.73524029  0.74784844     0.19200
H152        H  0.96460616  0.82196147  0.80491400     0.19100
H153        H  0.03799323  0.55704898  0.83182865     0.15000
C154        C  0.02619862  0.24138993  0.17513229     0.30400
C155        C  0.04288098  0.26214998  0.21580540    -0.35900
C156        C  0.02939974  0.31454667  0.21954962     0.16400
C157        C  0.00213751  0.34446601  0.18530658     0.22200
C158        C  0.98567337  0.32378881  0.14458058    -0.34000
C159        C  0.99855588  0.27139392  0.14110891     0.16300
O160        O  0.03233927  0.19311051  0.16536580    -0.26000
C161        C  0.00819877  0.19233366  0.12467717     0.06100
C162        C  0.98655583  0.23987757  0.10784679    -0.30900
O163        O  0.99315690  0.39238763  0.19622699    -0.22800
C164        C  0.01445258  0.39332101  0.23826364    -0.02800
C165        C  0.03767067  0.34586270  0.25451799    -0.17200
H166        H  0.06391030  0.23897514  0.24304312     0.20800
H167        H  0.96352691  0.34684355  0.11789204     0.19200
H168        H  0.96419812  0.24960495  0.07630006     0.19100
H169        H  0.05791930  0.33588742  0.28711528     0.15000
C170        C  0.01435414  0.70893284  0.13790011     0.30400
C171        C  0.02329484  0.65622194  0.13642665    -0.35900
C172        C  0.01351823  0.63116863  0.17729567     0.16400
C173        C  0.99616614  0.65602132  0.21700203     0.22200
C174        C  0.98662468  0.70887165  0.21831626    -0.34000
C175        C  0.99639036  0.73404507  0.17736772     0.16300
O176        O  0.02304110  0.73973602  0.10429529    -0.26000
C177        C  0.01021313  0.78523125  0.12231719     0.06100
C178        C  0.99317317  0.78408520  0.16760366    -0.30900
O179        O  0.99152358  0.62479405  0.25173960    -0.22800
C180        C  0.00578089  0.57924080  0.23394545    -0.02800
C181        C  0.01992217  0.58121196  0.18764162    -0.17200
H182        H  0.03778357  0.63611205  0.10582972     0.20800
H183        H  0.97342467  0.72893094  0.24932544     0.19200
H184        H  0.98151860  0.81545752  0.19036612     0.19100
H185        H  0.03434451  0.55054851  0.16497787     0.15000
C186        C  0.71827398  0.00769464  0.86242695     0.30400
C187        C  0.66554997  0.01871280  0.86360516    -0.35900
C188        C  0.63994855  0.01064626  0.82234838     0.16400
C189        C  0.66431523  0.99308307  0.78249112     0.22200
C190        C  0.71720223  0.98148054  0.78142499    -0.34000
C191        C  0.74291792  0.98941229  0.82284741     0.16300
O192        O  0.74957592  0.01478711  0.89643965    -0.26000
C193        C  0.79488906  0.00058479  0.87857776     0.06100
C194        C  0.79319456  0.98414045  0.83302228    -0.30900
O195        O  0.63259209  0.98988995  0.74754335    -0.22800
C196        C  0.58728758  0.00521800  0.76544864    -0.02800
C197        C  0.58982502  0.01870289  0.81191115    -0.17200
H198        H  0.64586059  0.03339566  0.89432270     0.20800
H199        H  0.73690074  0.96801919  0.75033820     0.19200
H200        H  0.82439719  0.97187092  0.81029301     0.19100
H201        H  0.55936855  0.03345037  0.83463567     0.15000
C202        C  0.25008105  0.01151988  0.82200033     0.30400
C203        C  0.26980705  0.02900666  0.78141117    -0.35900
C204        C  0.32246128  0.01852481  0.77809622     0.16400
C205        C  0.35358309  0.99305407  0.81252146     0.22200
C206        C  0.33388063  0.97543664  0.85307111    -0.34000
C207        C  0.28120330  0.98555758  0.85623355     0.16300
O208        O  0.20192970  0.01635231  0.83196082    -0.26000
C209        C  0.20227007  0.99303605  0.87299173     0.06100
C210        C  0.25046940  0.97312551  0.88982666    -0.30900
O211        O  0.40165953  0.98750549  0.80220077    -0.22800
C212        C  0.40145875  0.00930336  0.76038966    -0.02800
C213        C  0.35307496  0.02931760  0.74371955    -0.17200
H214        H  0.24576392  0.04900640  0.75416614     0.20800
H215        H  0.35791228  0.95498885  0.88009310     0.19200
H216        H  0.26116176  0.95217607  0.92187540     0.19100
H217        H  0.34198206  0.04934904  0.71130151     0.15000
C218        C  0.65217928  0.99995117  0.18653097     0.30400
C219        C  0.67296110  0.01567565  0.14575593    -0.35900
C220        C  0.72566731  0.00448302  0.14337409     0.16400
C221        C  0.75591722  0.97909084  0.17847096     0.22200
C222        C  0.73510411  0.96333627  0.21927628    -0.34000
C223        C  0.68236683  0.97504675  0.22186446     0.16300
O224        O  0.60393630  0.00790079  0.19663157    -0.26000
C225        C  0.60303430  0.98830875  0.23923861     0.06100
C226        C  0.65088413  0.96716136  0.25660348    -0.30900
O227        O  0.80434311  0.97331399  0.16913408    -0.22800
C228        C  0.80498349  0.99544731  0.12762197    -0.02800
C229        C  0.75719843  0.01556769  0.10993728    -0.17200
H230        H  0.64970565  0.03592670  0.11813514     0.20800
H231        H  0.75842903  0.94405006  0.24733105     0.19200
H232        H  0.66110756  0.94891361  0.28999280     0.19100
H233        H  0.74726635  0.03578993  0.07739360     0.15000
C234        C  0.36691070  0.98865457  0.18241798     0.29500
C235        C  0.34641419  0.97433528  0.14047983    -0.35900
C236        C  0.29356684  0.98197955  0.13704953     0.16400
C237        C  0.26290069  0.00263984  0.17230392     0.22200
C238        C  0.28343753  0.01710707  0.21421015    -0.34000
C239        C  0.33633152  0.00907732  0.21776084     0.16300
O240        O  0.41530476  0.98335580  0.19359343    -0.26000
C241        C  0.41601250  0.00027414  0.23688506     0.06100
C242        C  0.36771904  0.01700230  0.25355884    -0.30900
O243        O  0.21449761  0.00529239  0.16201579    -0.22800
C244        C  0.21421522  0.98597184  0.11966222    -0.02800
C245        C  0.26232178  0.97088087  0.10240222    -0.17200
H246        H  0.37003732  0.95763422  0.11275068     0.20800
H247        H  0.25984828  0.03273385  0.24236964     0.19200
H248        H  0.35699355  0.03245912  0.28716652     0.19100
H249        H  0.27276052  0.95358686  0.06942802     0.15000
loop_ 
_geom_bond_atom_site_label_1 
_geom_bond_atom_site_label_2 
_geom_bond_distance 
_geom_bond_site_symmetry_2 
_ccdc_geom_bond_type 
C1           N19   1.350       .  A
C1           C38   1.459       .  S
C1          C244   1.472       .  S
N2           N19   1.326       .  A
N2           N24   1.321       .  A
N2          Co39   2.088       .  S
C3           N28   1.341   1_655  A
C3           C41   1.459   1_655  S
C3           H48   1.081       .  S
H4           C45   1.082       .  S
C5           N29   1.340       .  A
C5            C9   1.458       .  S
C5           H34   1.081       .  S
Co6          N24   2.089   1_556  S
Co6          N14   2.088       .  S
Co6          N46   2.087   1_556  S
Co6          N22   2.092       .  S
Co6         Cl50   2.445       .  S
N7           C45   1.340   1_565  A
N7           N14   1.320       .  A
N7           Co8   2.078   1_455  S
Co8          N11   2.084   1_565  S
Co8          N28   2.085   1_655  S
Co8          N15   2.080   1_565  S
Co8         Cl50   2.459   1_655  S
C9           N47   1.349   1_655  A
C9          C129   1.466       .  S
N10          N17   1.320   1_655  A
N10          N40   1.324       .  A
N10         Co43   2.083       .  S
N11          N29   1.320       .  A
N11          N47   1.325   1_655  A
N12          C41   1.350       .  A
N12          N22   1.326       .  A
H13          C38   1.081       .  S
N14          N35   1.325       .  A
N15          N33   1.320       .  A
N15          N20   1.324   1_545  A
C16          N20   1.348   1_545  A
C16          C44   1.457       .  S
C16         C193   1.465       .  S
N17          C32   1.341       .  A
N17         Co39   2.083   1_545  S
C18          N46   1.341       .  A
C18          C21   1.457       .  S
C18          H52   1.082       .  S
C21          N42   1.349       .  A
C21         C177   1.469       .  S
N22          N28   1.321       .  A
N23          C49   1.342       .  A
N23          N25   1.321   1_565  A
N23         Co39   2.086   1_655  S
N24          C38   1.341       .  A
N25          N53   1.324       .  A
N25         Co43   2.083       .  S
H26          C49   1.082       .  S
H27          C44   1.082       .  S
N29         Co43   2.083   1_556  S
N30          N42   1.325       .  A
N30          N46   1.321       .  A
N30         Co39   2.087       .  S
C31          N35   1.349       .  A
C31          C45   1.455   1_565  S
C31         C209   1.465       .  S
C32          C51   1.457       .  S
C32          H36   1.082       .  S
N33          C44   1.341       .  A
N33         Co43   2.087   1_556  S
C37          N53   1.348   1_565  A
C37          C49   1.458       .  S
C37         C228   1.466       .  S
Co39        Cl50   2.460   1_554  S
N40          C51   1.348   1_655  A
C41         C145   1.471       .  S
Co43        Cl50   2.444   1_644  S
C51         C161   1.465       .  S
C54         C180   1.485       .  S
C54          C55   1.408       .  A
C54          C59   1.404       .  A
C55          H60   1.083       .  S
C55          C56   1.410       .  A
C56         C116   1.489       .  S
C56          C57   1.409       .  A
C57          H61   1.080       .  S
C57          C58   1.402       .  A
C58         C164   1.477       .  S
C58          C59   1.398       .  A
C59          H62   1.082       .  S
C63         C148   1.483       .  S
C63          C64   1.404       .  A
C63          C68   1.405       .  A
C64          H69   1.083       .  S
C64          C65   1.404       .  A
C65         C132   1.483       .  S
C65          C66   1.404       .  A
C66          H70   1.081       .  S
C66          C67   1.406       .  A
C67         C113   1.486       .  S
C67          C68   1.408       .  A
C68          H71   1.081       .  S
C72         C241   1.485   1_565  S
C72          C73   1.407   1_565  A
C72          C77   1.404       .  A
C73          H78   1.082       .  S
C73          C74   1.406   1_545  A
C74         C100   1.487   1_565  S
C74          C75   1.407       .  A
C75          H79   1.080       .  S
C75          C76   1.405       .  A
C76         C225   1.480       .  S
C76          C77   1.403       .  A
C77          H80   1.084       .  S
C81         C212   1.479       .  S
C81          C82   1.400       .  A
C81          C86   1.404       .  A
C82          H87   1.082       .  S
C82          C83   1.404       .  A
C83         C196   1.481       .  S
C83          C84   1.404       .  A
C84          H88   1.084       .  S
C84          C85   1.407       .  A
C85          C97   1.486       .  S
C85          C86   1.408       .  A
C86          H89   1.080       .  S
C90          C95   1.378       .  A
C90          C91   1.404   1_545  A
C90          O96   1.318       .  A
C91         H102   1.082       .  S
C91          C92   1.403       .  A
C92         C101   1.361       .  A
C92          C93   1.378   1_565  A
C93          C94   1.403       .  A
C93          O99   1.318       .  A
C94         H103   1.082       .  S
C94          C95   1.402       .  A
C95          C98   1.360       .  A
O96          C97   1.333       .  A
C97          C98   1.396       .  A
C98         H104   1.081       .  S
O99         C100   1.333       .  A
C100        C101   1.397   1_545  A
C101        H105   1.081       .  S
C106        C111   1.379       .  A
C106        C107   1.401       .  A
C106        O112   1.316       .  A
C107        H118   1.082       .  S
C107        C108   1.401       .  A
C108        C117   1.358       .  A
C108        C109   1.378       .  A
C109        C110   1.406       .  A
C109        O115   1.321       .  A
C110        H119   1.082   1_455  S
C110        C111   1.405       .  A
C111        C114   1.363       .  A
O112        C113   1.332       .  A
C113        C114   1.397       .  A
C114        H120   1.081   1_455  S
O115        C116   1.334       .  A
C116        C117   1.396       .  A
C117        H121   1.081       .  S
C122        C127   1.380   1_455  A
C122        C123   1.405       .  A
C122        O128   1.320       .  A
C123        H134   1.082       .  S
C123        C124   1.404       .  A
C124        C133   1.363       .  A
C124        C125   1.379   1_455  A
C125        C126   1.400       .  A
C125        O131   1.315       .  A
C126        H135   1.082       .  S
C126        C127   1.399       .  A
C127        C130   1.358       .  A
O128        C129   1.331   1_455  A
C129        C130   1.389       .  A
C130        H136   1.082       .  S
O131        C132   1.331   1_655  A
C132        C133   1.397       .  A
C133        H137   1.082       .  S
C138        C143   1.380   1_455  A
C138        C139   1.404       .  A
C138        O144   1.320       .  A
C139        H150   1.082       .  S
C139        C140   1.403       .  A
C140        C149   1.361       .  A
C140        C141   1.379   1_455  A
C141        C142   1.404       .  A
C141        O147   1.320       .  A
C142        H151   1.082       .  S
C142        C143   1.404       .  A
C143        C146   1.363       .  A
O144        C145   1.331       .  A
C145        C146   1.391   1_455  A
C146        H152   1.082       .  S
O147        C148   1.332   1_655  A
C148        C149   1.395       .  A
C149        H153   1.082       .  S
C154        C159   1.381   1_455  A
C154        C155   1.403       .  A
C154        O160   1.318       .  A
C155        H166   1.082       .  S
C155        C156   1.402       .  A
C156        C165   1.362       .  A
C156        C157   1.380       .  A
C157        C158   1.401   1_455  A
C157        O163   1.316   1_455  A
C158        H167   1.082       .  S
C158        C159   1.400       .  A
C159        C162   1.359       .  A
O160        C161   1.330       .  A
C161        C162   1.389   1_455  A
C162        H168   1.083       .  S
O163        C164   1.331   1_655  A
C164        C165   1.393       .  A
C165        H169   1.082       .  S
C170        C175   1.381   1_455  A
C170        C171   1.401       .  A
C170        O176   1.318       .  A
C171        H182   1.082       .  S
C171        C172   1.401       .  A
C172        C181   1.357       .  A
C172        C173   1.379   1_455  A
C173        C174   1.405       .  A
C173        O179   1.321       .  A
C174        H183   1.082       .  S
C174        C175   1.405       .  A
C175        C178   1.363       .  A
O176        C177   1.330       .  A
C177        C178   1.391   1_455  A
C178        H184   1.082       .  S
O179        C180   1.333   1_655  A
C180        C181   1.395       .  A
C181        H185   1.082       .  S
C186        C191   1.381   1_545  A
C186        C187   1.400       .  A
C186        O192   1.317       .  A
C187        H198   1.082       .  S
C187        C188   1.400       .  A
C188        C197   1.356       .  A
C188        C189   1.379   1_545  A
C189        C190   1.404       .  A
C189        O195   1.320       .  A
C190        H199   1.082       .  S
C190        C191   1.404       .  A
C191        C194   1.362       .  A
O192        C193   1.328       .  A
C193        C194   1.391   1_545  A
C194        H200   1.082       .  S
O195        C196   1.333   1_565  A
C196        C197   1.393       .  A
C197        H201   1.082       .  S
C202        C207   1.381   1_545  A
C202        C203   1.403       .  A
C202        O208   1.318       .  A
C203        H214   1.082       .  S
C203        C204   1.402       .  A
C204        C213   1.361       .  A
C204        C205   1.380   1_545  A
C205        C206   1.403       .  A
C205        O211   1.317       .  A
C206        H215   1.082       .  S
C206        C207   1.402       .  A
C207        C210   1.361       .  A
O208        C209   1.330   1_545  A
C209        C210   1.390       .  A
C210        H216   1.082       .  S
O211        C212   1.332   1_565  A
C212        C213   1.393       .  A
C213        H217   1.082       .  S
C218        C223   1.380       .  A
C218        C219   1.402   1_565  A
C218        O224   1.318   1_565  A
C219        H230   1.082       .  S
C219        C220   1.401       .  A
C220        C229   1.360       .  A
C220        C221   1.381   1_545  A
C221        C222   1.404       .  A
C221        O227   1.319       .  A
C222        H231   1.082       .  S
C222        C223   1.403       .  A
C223        C226   1.362       .  A
O224        C225   1.331   1_545  A
C225        C226   1.394       .  A
C226        H232   1.082       .  S
O227        C228   1.330       .  A
C228        C229   1.390   1_565  A
C229        H233   1.083       .  S
C234        C239   1.379   1_565  A
C234        C235   1.404       .  A
C234        O240   1.319       .  A
C235        H246   1.082       .  S
C235        C236   1.403       .  A
C236        C245   1.362       .  A
C236        C237   1.380   1_565  A
C237        C238   1.405       .  A
C237        O243   1.320       .  A
C238        H247   1.082       .  S
C238        C239   1.404       .  A
C239        C242   1.362       .  A
O240        C241   1.333   1_565  A
C241        C242   1.396       .  A
C242        H248   1.082       .  S
O243        C244   1.331   1_545  A
C244        C245   1.391       .  A
C245        H249   1.082       .  S
