geometry optimzed in LAMMPS
_audit_creation_date              2020-12-01 
_audit_creation_method            'lammps2cif' 
_symmetry_space_group_name_H-M    'P1' 
_symmetry_Int_Tables_number       1 
_symmetry_cell_setting            triclinic 
loop_ 
_symmetry_equiv_pos_as_xyz 
  x,y,z 
_cell_length_a                    25.80775701 
_cell_length_b                    25.873781737851566 
_cell_length_c                    42.20137120853965 
_cell_angle_alpha                 89.84506971460411 
_cell_angle_beta                  90.0129371025295 
_cell_angle_gamma                 90.00498300775513 
loop_ 
_atom_site_label 
_atom_site_type_symbol 
_atom_site_fract_x 
_atom_site_fract_y 
_atom_site_fract_z 
_atom_site_charge 
N1          N  0.47944228  0.56592944  0.67339027    -0.27200
N2          N  0.44847564  0.58206740  0.65038599    -0.35000
C3          C  0.42014925  0.62227397  0.66107991     0.01200
C4          C  0.43458190  0.63236138  0.69208089     0.07200
C5          C  0.47255148  0.59624767  0.69894812    -0.05900
H6          H  0.39258289  0.64383656  0.64695085     0.07800
H7          H  0.49336473  0.59204047  0.72105719     0.09000
Cu8        Cu  0.44920810  0.55038740  0.60481769     0.44200
Cu9        Cu  0.52722928  0.50089476  0.67001726     0.42000
Cu10       Cu  0.50886775  0.42427802  0.59904289     0.43900
N11         N  0.45866053  0.51087042  0.56201138    -0.34600
N12         N  0.47742319  0.46336516  0.56022679    -0.28800
C13         C  0.47894440  0.44888543  0.52956997    -0.04900
C14         C  0.46124929  0.48951512  0.51113347     0.07300
C15         C  0.44914455  0.52830943  0.53243906     0.01100
H16         H  0.49499621  0.41280034  0.52117921     0.08700
H17         H  0.43539505  0.56674945  0.52680677     0.07800
N18         N  0.55023809  0.39878435  0.63863947    -0.36000
N19         N  0.55986830  0.42765432  0.66380244    -0.28200
C20         C  0.58802322  0.39977491  0.68473792    -0.03400
C21         C  0.59584323  0.35087983  0.67228940     0.05200
C22         C  0.57112485  0.35169335  0.64315718     0.03300
H23         H  0.59906378  0.41298630  0.70808155     0.08400
H24         H  0.56767097  0.31991191  0.62667828     0.07200
N25         N  0.53153172  0.57003061  0.31846076    -0.27200
N26         N  0.54921753  0.58181082  0.34695110    -0.35000
C27         C  0.59453805  0.60712969  0.34387974     0.01200
C28         C  0.60550610  0.61260917  0.31195439     0.07200
C29         C  0.56502258  0.58806439  0.29654129    -0.05900
H30         H  0.61945886  0.61759787  0.36345851     0.07800
H31         H  0.56235625  0.58016107  0.27142954     0.09000
Cu32       Cu  0.51491551  0.55602926  0.38875811     0.44200
Cu33       Cu  0.46765743  0.52180975  0.31149487     0.42000
Cu34       Cu  0.42708022  0.44780227  0.38142621     0.43900
N35         N  0.48148867  0.51872495  0.42746184    -0.34600
N36         N  0.45235503  0.47683192  0.42502019    -0.28800
C37         C  0.44057507  0.45981432  0.45440642    -0.04900
C38         C  0.46242487  0.49327180  0.47624243     0.07300
C39         C  0.48790283  0.53016888  0.45832902     0.01100
H40         H  0.41711923  0.42614810  0.45949956     0.08700
H41         H  0.51084404  0.56206509  0.46710999     0.07800
N42         N  0.39697117  0.43666342  0.33590498    -0.36000
N43         N  0.40935692  0.46577515  0.31117740    -0.28200
C44         C  0.37776880  0.45386070  0.28685428    -0.03400
C45         C  0.34480714  0.41459003  0.29637630     0.05200
C46         C  0.35795407  0.40473747  0.32761643     0.03300
H47         H  0.37774564  0.47343431  0.26416200     0.08400
H48         H  0.33804754  0.37904585  0.34380752     0.07200
N49         N  0.37079085  0.73668761  0.73589581    -0.27200
N50         N  0.42026385  0.74631496  0.74173441    -0.35000
C51         C  0.44967658  0.70951687  0.72824981     0.01200
C52         C  0.41762420  0.67552854  0.71245358     0.07200
C53         C  0.36780165  0.69395710  0.71762539    -0.05900
H54         H  0.49160340  0.70971508  0.72793755     0.07800
H55         H  0.33217106  0.67799783  0.70834629     0.09000
Cu56       Cu  0.44756031  0.81546864  0.75994770     0.44200
Cu57       Cu  0.31044479  0.78489271  0.75193076     0.42000
Cu58       Cu  0.35220876  0.91691334  0.75573941     0.43900
N59         N  0.46643828  0.89331094  0.75901467    -0.34600
N60         N  0.43145544  0.93003250  0.75482685    -0.28800
C61         C  0.45581183  0.97529658  0.75004548    -0.04900
C62         C  0.50860843  0.96668491  0.75153861     0.07300
C63         C  0.51407118  0.91438300  0.75745274     0.01100
H64         H  0.43647535  0.01166062  0.74549657     0.08700
H65         H  0.54991028  0.89277468  0.75867123     0.07800
N66         N  0.27719503  0.89417811  0.76645758    -0.36000
N67         N  0.26211331  0.84533577  0.76752220    -0.28200
C68         C  0.21378874  0.84353652  0.77987519    -0.03400
C69         C  0.19768425  0.89375301  0.78608220     0.05200
C70         C  0.23881822  0.92465093  0.77717388     0.03300
H71         H  0.19209669  0.80842201  0.78413259     0.08400
H72         H  0.24169417  0.96612806  0.77986095     0.07200
N73         N  0.77226333  0.16383997  0.77025182    -0.27200
N74         N  0.76291351  0.11371947  0.77347734    -0.35000
C75         C  0.80382471  0.09063540  0.78714972     0.01200
C76         C  0.84098742  0.12747638  0.79313325     0.07200
C77         C  0.81992538  0.17365389  0.78222892    -0.05900
H78         H  0.80634855  0.04972329  0.79229916     0.07800
H79         H  0.83826266  0.21125170  0.78239733     0.09000
Cu80       Cu  0.69599503  0.07571558  0.75995883     0.44200
Cu81       Cu  0.72028532  0.21532013  0.74753778     0.42000
Cu82       Cu  0.61009907  0.14724935  0.71293888     0.43900
N83         N  0.62392078  0.04740281  0.74756601    -0.37000
N84         N  0.59125070  0.07515990  0.73052913    -0.28800
C85         C  0.54550207  0.05050748  0.72907501    -0.04900
C86         C  0.54988296  0.00463462  0.74571787     0.07300
C87         C  0.60022658  0.00363504  0.75699765     0.01100
H88         H  0.51136990  0.06534696  0.71727084     0.08700
H89         H  0.61751928  0.97457562  0.77214875     0.07800
N90         N  0.62707425  0.22385476  0.70400885    -0.36000
N91         N  0.66393615  0.25080383  0.71822077    -0.28200
C92         C  0.65889348  0.30090946  0.70938109    -0.03400
C93         C  0.61772120  0.30480501  0.68819473     0.05200
C94         C  0.59892693  0.25518857  0.68535355     0.03300
H95         H  0.68365504  0.33198844  0.71738267     0.08400
H96         H  0.56567903  0.24297039  0.67166222     0.07200
N97         N  0.01181706  0.06628825  0.17416797    -0.27200
N98         N  0.04161222  0.08190947  0.15046008    -0.35000
C99         C  0.07199019  0.12091357  0.16065468     0.01200
C100        C  0.06025837  0.13067046  0.19208428     0.07200
C101        C  0.02164064  0.09573073  0.19973292    -0.05900
H102        H  0.09851188  0.14247790  0.14580288     0.07800
H103        H  0.00165192  0.09237893  0.22217421     0.09000
Cu104      Cu  0.03595420  0.05280670  0.10443895     0.44200
Cu105      Cu  0.95987913  0.00455629  0.17150659     0.42000
Cu106      Cu  0.96689778  0.93225676  0.09863353     0.43900
N107        N  0.02203178  0.01527119  0.06148586    -0.34600
N108        N  0.99952495  0.96942986  0.05975926    -0.28800
C109        C  0.99660932  0.95499071  0.02917153    -0.04900
C110        C  0.01736871  0.99400475  0.01069872     0.07300
C111        C  0.03275315  0.03181771  0.03188361     0.01100
H112        H  0.97820921  0.91996372  0.02089668     0.08700
H113        H  0.05011207  0.06875151  0.02617923     0.07800
N114        N  0.92720510  0.90680610  0.13858430    -0.36000
N115        N  0.92191903  0.93418672  0.16480559    -0.28200
C116        C  0.89535903  0.90588514  0.18625876    -0.03400
C117        C  0.88390208  0.85837804  0.17289223     0.05200
C118        C  0.90505549  0.86028285  0.14281593     0.03300
H119        H  0.88880836  0.91728471  0.21057695     0.08400
H120        H  0.90628870  0.82919551  0.12573429     0.07200
N121        N  0.96366441  0.07138175  0.81635271    -0.27200
N122        N  0.94674783  0.08827574  0.84401122    -0.35000
C123        C  0.90320146  0.11608192  0.83938661     0.01200
C124        C  0.89225115  0.11726993  0.80724628     0.07200
C125        C  0.93107280  0.08782063  0.79350835    -0.05900
H126        H  0.87842861  0.12983003  0.85825134     0.07800
H127        H  0.93280137  0.07541672  0.76907099     0.09000
Cu128      Cu  0.97727748  0.06267181  0.88695996     0.44200
Cu129      Cu  0.02496892  0.01901104  0.81191455     0.42000
Cu130      Cu  0.05850363  0.94673798  0.88284702     0.43900
N131        N  0.00458230  0.02266514  0.92647397    -0.34600
N132        N  0.03060163  0.97860446  0.92509131    -0.28800
C133        C  0.03879314  0.96133407  0.95486049    -0.04900
C134        C  0.01797831  0.99676539  0.97583238     0.07300
C135        C  0.99672361  0.03511205  0.95706183     0.01100
H136        H  0.05955833  0.92630850  0.96081880     0.08700
H137        H  0.97593173  0.06897403  0.96503132     0.07800
N138        N  0.09310889  0.93384958  0.83869919    -0.36000
N139        N  0.08286061  0.96244407  0.81340567    -0.28200
C140        C  0.11685323  0.95046045  0.79033298    -0.03400
C141        C  0.14929559  0.91165019  0.80122553     0.05200
C142        C  0.13322623  0.90219541  0.83203643     0.03300
H143        H  0.11907354  0.96994090  0.76765879     0.08400
H144        H  0.15193836  0.87714943  0.84912572     0.07200
N145        N  0.12527972  0.23718832  0.23276581    -0.27200
N146        N  0.07588761  0.24895756  0.23719838    -0.35000
C147        C  0.04600559  0.21147458  0.22490269     0.01200
C148        C  0.07772392  0.17470375  0.21142760     0.07200
C149        C  0.12782237  0.19223613  0.21662326    -0.05900
H150        H  0.00415545  0.21292281  0.22366810     0.07800
H151        H  0.16334038  0.17431938  0.20860798     0.09000
Cu152      Cu  0.04960201  0.32048101  0.25226520     0.44200
Cu153      Cu  0.18618252  0.28554592  0.24734720     0.42000
Cu154      Cu  0.14661048  0.41887290  0.24543435     0.43900
N155        N  0.03246914  0.39875166  0.25234663    -0.34600
N156        N  0.06807802  0.43456582  0.24734007    -0.28800
C157        C  0.04500902  0.48101920  0.24547479    -0.04900
C158        C  0.99239919  0.47413803  0.24979055     0.07300
C159        C  0.98568824  0.42156602  0.25419877     0.01100
H160        H  0.06514715  0.51715116  0.24156767     0.08700
H161        H  0.94941102  0.40122417  0.25733731     0.07800
N162        N  0.22076609  0.39568493  0.25742908    -0.36000
N163        N  0.23474304  0.34681151  0.26091572    -0.28200
C164        C  0.28194198  0.34551624  0.27476581    -0.03400
C165        C  0.29851730  0.39599865  0.27938421     0.05200
C166        C  0.25883132  0.42658748  0.26803816     0.03300
H167        H  0.30224037  0.31058203  0.28148002     0.08400
H168        H  0.25621031  0.46825051  0.26948522     0.07200
N169        N  0.72104809  0.66353937  0.27249225    -0.27200
N170        N  0.73713003  0.61722363  0.28166769    -0.35000
C171        C  0.69890388  0.59322830  0.29754439     0.01200
C172        C  0.65639523  0.62540331  0.29826831     0.07200
C173        C  0.67147604  0.66966379  0.28210390    -0.05900
H174        H  0.70143641  0.55446569  0.30710015     0.07800
H175        H  0.64806649  0.70352456  0.27744252     0.09000
Cu176      Cu  0.80823999  0.58471776  0.27073948     0.44200
Cu177      Cu  0.76750807  0.71549744  0.24656810     0.42000
Cu178      Cu  0.88905214  0.65808668  0.22013147     0.43900
N179        N  0.87991743  0.55840133  0.25579397    -0.34600
N180        N  0.91055659  0.58667672  0.23766622    -0.28800
C181        C  0.95529284  0.56125856  0.23301606    -0.04900
C182        C  0.95224646  0.51429210  0.24856590     0.07300
C183        C  0.90386792  0.51353698  0.26267570     0.01100
H184        H  0.98735946  0.57566777  0.21904099     0.08700
H185        H  0.88770400  0.48319096  0.27733076     0.07800
N186        N  0.86488040  0.73148016  0.20777362    -0.36000
N187        N  0.82274875  0.75453241  0.21869467    -0.28200
C188        C  0.82256436  0.80394302  0.20816385    -0.03400
C189        C  0.86602989  0.81135322  0.18930384     0.05200
C190        C  0.89159240  0.76462621  0.18951928     0.03300
H191        H  0.79283606  0.83207897  0.21349364     0.08400
H192        H  0.92809729  0.75583136  0.17813850     0.07200
loop_ 
_geom_bond_atom_site_label_1 
_geom_bond_atom_site_label_2 
_geom_bond_distance 
_geom_bond_site_symmetry_2 
_ccdc_geom_bond_type 
N1            N2   1.324       .  A
N1            C5   1.347       .  A
N1           Cu9   2.092       .  S
N2            C3   1.350       .  A
N2           Cu8   2.093       .  S
C3            C4   1.386       .  A
C3            H6   1.082       .  S
C4            C5   1.384       .  A
C4           C52   1.478       .  S
C5            H7   1.082       .  S
Cu8          N11   2.092       .  S
Cu9          N19   2.091       .  S
Cu10         N12   2.087       .  S
Cu10         N18   2.088       .  S
N11          N12   1.323       .  A
N11          C15   1.348       .  A
N12          C13   1.348       .  A
C13          C14   1.384       .  A
C13          H16   1.082       .  S
C14          C15   1.385       .  A
C14          C38   1.476       .  S
C15          H17   1.082       .  S
N18          N19   1.323       .  A
N18          C22   1.345       .  A
N19          C20   1.351       .  A
C20          C21   1.386       .  A
C20          H23   1.082       .  S
C21          C22   1.385       .  A
C21          C93   1.479       .  S
C22          H24   1.082       .  S
N25          N26   1.322       .  A
N25          C29   1.348       .  A
N25         Cu33   2.089       .  S
N26          C27   1.347       .  A
N26         Cu32   2.082       .  S
C27          C28   1.384       .  A
C27          H30   1.082       .  S
C28          C29   1.386       .  A
C28         C172   1.472       .  S
C29          H31   1.082       .  S
Cu32         N35   2.082       .  S
Cu33         N43   2.089       .  S
Cu34         N36   2.093       .  S
Cu34         N42   2.093       .  S
N35          N36   1.323       .  A
N35          C39   1.347       .  A
N36          C37   1.350       .  A
C37          C38   1.386       .  A
C37          H40   1.082       .  S
C38          C39   1.383       .  A
C39          H41   1.082       .  S
N42          N43   1.325       .  A
N42          C46   1.349       .  A
N43          C44   1.347       .  A
C44          C45   1.384       .  A
C44          H47   1.082       .  S
C45          C46   1.384       .  A
C45         C165   1.474       .  S
C46          H48   1.082       .  S
N49          N50   1.324       .  A
N49          C53   1.352       .  A
N49         Cu57   2.108       .  S
N50          C51   1.345       .  A
N50         Cu56   2.073       .  S
C51          C52   1.380       .  A
C51          H54   1.082       .  S
C52          C53   1.389       .  A
C53          H55   1.082       .  S
Cu56         N59   2.072       .  S
Cu57         N67   2.107       .  S
Cu58         N60   2.073       .  S
Cu58         N66   2.073       .  S
N59          N60   1.322       .  A
N59          C63   1.346       .  A
N60          C61   1.344       .  A
C61          C62   1.382       .  A
C61          H64   1.082   1_565  S
C62          C63   1.383       .  A
C62          C86   1.469   1_565  S
C63          H65   1.082       .  S
N66          N67   1.323       .  A
N66          C70   1.345       .  A
N67          C68   1.353       .  A
C68          C69   1.390       .  A
C68          H71   1.082       .  S
C69          C70   1.381       .  A
C69         C141   1.478       .  S
C70          H72   1.082       .  S
N73          N74   1.326       .  A
N73          C77   1.354       .  A
N73         Cu81   2.118       .  S
N74          C75   1.343       .  A
N74         Cu80   2.068       .  S
C75          C76   1.376       .  A
C75          H78   1.082       .  S
C76          C77   1.390       .  A
C76         C124   1.474       .  S
C77          H79   1.082       .  S
Cu80         N83   2.067       .  S
Cu81         N91   2.117       .  S
Cu82         N84   2.064       .  S
Cu82         N90   2.064       .  S
N83          N84   1.319       .  A
N83          C87   1.346       .  A
N84          C85   1.343       .  A
C85          C86   1.382       .  A
C85          H88   1.082       .  S
C86          C87   1.384       .  A
C87          H89   1.082   1_545  S
N90          N91   1.324       .  A
N90          C94   1.342       .  A
N91          C92   1.354       .  A
C92          C93   1.392       .  A
C92          H95   1.082       .  S
C93          C94   1.378       .  A
C94          H96   1.082       .  S
N97          N98   1.324       .  A
N97         C101   1.346       .  A
N97        Cu105   2.088   1_455  S
N98          C99   1.349       .  A
N98        Cu104   2.090       .  S
C99         C100   1.384       .  A
C99         H102   1.082       .  S
C100        C101   1.383       .  A
C100        C148   1.474       .  S
C101        H103   1.082       .  S
Cu104       N107   2.090       .  S
Cu105       N115   2.087   1_545  S
Cu106       N108   2.078       .  S
Cu106       N114   2.078       .  S
N107        N108   1.323   1_445  A
N107        C111   1.348       .  A
N108        C109   1.347       .  A
C109        C110   1.382   1_655  A
C109        H112   1.082       .  S
C110        C111   1.385   1_565  A
C110        C134   1.473   1_554  S
C111        H113   1.082       .  S
N114        N115   1.323       .  A
N114        C118   1.344       .  A
N115        C116   1.350       .  A
C116        C117   1.386       .  A
C116        H119   1.082       .  S
C117        C118   1.383       .  A
C117        C189   1.473       .  S
C118        H120   1.082       .  S
N121        N122   1.322       .  A
N121        C125   1.347       .  A
N121       Cu129   2.092   1_655  S
N122        C123   1.348       .  A
N122       Cu128   2.083       .  S
C123        C124   1.386       .  A
C123        H126   1.082       .  S
C124        C125   1.387       .  A
C125        H127   1.082       .  S
Cu128       N131   2.083   1_655  S
Cu129       N139   2.092   1_545  S
Cu130       N132   2.094       .  S
Cu130       N138   2.094       .  S
N131        N132   1.325   1_545  A
N131        C135   1.347   1_455  A
N132        C133   1.349       .  A
C133        C134   1.385       .  A
C133        H136   1.082       .  S
C134        C135   1.381   1_465  A
C135        H137   1.082       .  S
N138        N139   1.324       .  A
N138        C142   1.350       .  A
N139        C140   1.348       .  A
C140        C141   1.385       .  A
C140        H143   1.082       .  S
C141        C142   1.386       .  A
C142        H144   1.082       .  S
N145        N146   1.324       .  A
N145        C149   1.351       .  A
N145       Cu153   2.102       .  S
N146        C147   1.344       .  A
N146       Cu152   2.073       .  S
C147        C148   1.379       .  A
C147        H150   1.082       .  S
C148        C149   1.388       .  A
C149        H151   1.082       .  S
Cu152       N155   2.073       .  S
Cu153       N163   2.101       .  S
Cu154       N156   2.069       .  S
Cu154       N162   2.068       .  S
N155        N156   1.322       .  A
N155        C159   1.346   1_455  A
N156        C157   1.343       .  A
C157        C158   1.381   1_455  A
C157        H160   1.082       .  S
C158        C159   1.383       .  A
C158        C182   1.468       .  S
C159        H161   1.082       .  S
N162        N163   1.323       .  A
N162        C166   1.344       .  A
N163        C164   1.351       .  A
C164        C165   1.389       .  A
C164        H167   1.082       .  S
C165        C166   1.379       .  A
C166        H168   1.082       .  S
N169        N170   1.325       .  A
N169        C173   1.352       .  A
N169       Cu177   2.106       .  S
N170        C171   1.344       .  A
N170       Cu176   2.071       .  S
C171        C172   1.378       .  A
C171        H174   1.082       .  S
C172        C173   1.387       .  A
C173        H175   1.082       .  S
Cu176       N179   2.070       .  S
Cu177       N187   2.105       .  S
Cu178       N180   2.064       .  S
Cu178       N186   2.064       .  S
N179        N180   1.320       .  A
N179        C183   1.346       .  A
N180        C181   1.343       .  A
C181        C182   1.382       .  A
C181        H184   1.082       .  S
C182        C183   1.383       .  A
C183        H185   1.082       .  S
N186        N187   1.324       .  A
N186        C190   1.342       .  A
N187        C188   1.352       .  A
C188        C189   1.389       .  A
C188        H191   1.082       .  S
C189        C190   1.377       .  A
C190        H192   1.082       .  S
