geometry optimzed in LAMMPS
_audit_creation_date              2020-12-01 
_audit_creation_method            'lammps2cif' 
_symmetry_space_group_name_H-M    'P1' 
_symmetry_Int_Tables_number       1 
_symmetry_cell_setting            triclinic 
loop_ 
_symmetry_equiv_pos_as_xyz 
  x,y,z 
_cell_length_a                    23.85684032 
_cell_length_b                    23.831683757412623 
_cell_length_c                    35.206568118126896 
_cell_angle_alpha                 90.09914394457775 
_cell_angle_beta                  91.32006712697711 
_cell_angle_gamma                 92.04949947037032 
loop_ 
_atom_site_label 
_atom_site_type_symbol 
_atom_site_fract_x 
_atom_site_fract_y 
_atom_site_fract_z 
_atom_site_charge 
C1          C  0.67836062  0.39303308  0.00649133     0.82100
N2          N  0.64142651  0.44285262  0.50005606    -0.76200
C3          C  0.58663559  0.42522629  0.50063041     0.84500
N4          N  0.57314163  0.36930476  0.50181601    -0.76200
C5          C  0.60802744  0.32137368  0.00440401     0.84600
N6          N  0.66307644  0.33766075  0.00666957    -0.77900
C7          C  0.96076265  0.89977104  0.24730298     0.82100
N8          N  0.97355929  0.84493474  0.24566653    -0.76200
C9          C  0.02780741  0.83007867  0.24519247     0.84500
N10         N  0.06963028  0.87036717  0.24643024    -0.76200
C11         C  0.05698891  0.92562447  0.24807119     0.84600
N12         N  0.00236680  0.94010466  0.24851946    -0.77900
C13         C  0.51326444  0.55974158  0.49834164     0.82100
N14         N  0.55489592  0.52228860  0.49915357    -0.76200
C15         C  0.54205423  0.46619460  0.49982373     0.84500
N16         N  0.48748443  0.44791524  0.49966452    -0.76200
C17         C  0.44597512  0.48524878  0.49882832     0.84600
N18         N  0.45883744  0.54113919  0.49817817    -0.77900
O19         O  0.50444411  0.99750767  0.25226387    -0.72500
O20         O  0.66416253  0.98599398  0.25480434    -0.72600
O21         O  0.58597939  0.00005445  0.19934162    -0.72600
O22         O  0.58300291  0.98300612  0.30773428    -0.72700
O23         O  0.57754303  0.88984533  0.30066728    -0.72600
O24         O  0.57141169  0.90752143  0.19244181    -0.72600
O25         O  0.65414178  0.89344519  0.24534972    -0.72600
O26         O  0.49428378  0.90420479  0.24773459    -0.72600
Ni27       Ni  0.58466900  0.99499907  0.25379542     1.25400
Ni28       Ni  0.57389215  0.89541425  0.24630360     1.25400
C29         C  0.47328743  0.95274947  0.24999206     0.89600
C30         C  0.68519827  0.93794977  0.24999676     0.89600
C31         C  0.57902433  0.95652866  0.17811894     0.89600
C32         C  0.58091925  0.93350283  0.32194424     0.89800
O33         O  0.50947434  0.86784447  0.49858497    -0.72500
O34         O  0.52334620  0.02841757  0.50496904    -0.72600
O35         O  0.51169391  0.95361575  0.44744436    -0.72600
O36         O  0.51017677  0.93322082  0.05039326    -0.72700
O37         O  0.60357164  0.93704898  0.05669701    -0.72600
O38         O  0.60431230  0.94459178  0.44461753    -0.72600
O39         O  0.61621749  0.02403141  0.49985304    -0.72600
O40         O  0.60277790  0.86319708  0.49837771    -0.72600
Ni41       Ni  0.51308182  0.94831283  0.50185678     1.25400
Ni42       Ni  0.61283712  0.94349705  0.49899992     1.25400
C43         C  0.55387143  0.83926404  0.49799924     0.89600
C44         C  0.57202385  0.05243994  0.50297010     0.89600
C45         C  0.55640795  0.95073407  0.42820685     0.89600
C46         C  0.55481937  0.93428464  0.07130270     0.89800
C47         C  0.13029753  0.06544254  0.25224553     0.82100
N48         N  0.18477592  0.05108134  0.25202186    -0.76200
C49         C  0.19804133  0.99626086  0.25056480     0.84500
N50         N  0.15670100  0.95558447  0.24928511    -0.76200
C51         C  0.10195657  0.96966451  0.24948792     0.84600
N52         N  0.08892799  0.02477498  0.25096456    -0.77900
O53         O  0.12767161  0.37466037  0.24861421    -0.72500
O54         O  0.10789185  0.53330682  0.24328592    -0.72600
O55         O  0.12612610  0.45990264  0.30020066    -0.72600
O56         O  0.10869181  0.44911050  0.19171127    -0.72700
O57         O  0.01653419  0.43318787  0.19779608    -0.72600
O58         O  0.03387156  0.44415894  0.30578523    -0.72600
O59         O  0.01547156  0.51894731  0.24904380    -0.72600
O60         O  0.03532950  0.35985082  0.25448899    -0.72600
Ni61       Ni  0.12092235  0.45468768  0.24574435     1.25400
Ni62       Ni  0.02198344  0.43867776  0.25198093     1.25400
C63         C  0.08484320  0.34132520  0.25229026     0.89600
C64         C  0.05854969  0.55207377  0.24542695     0.89600
C65         C  0.08273005  0.45363929  0.32074502     0.89600
C66         C  0.05967777  0.43891106  0.17706228     0.89800
O67         O  0.14177584  0.38722165  0.50057780    -0.72500
O68         O  0.98154898  0.39414084  0.50110180    -0.72600
O69         O  0.05826317  0.38504587  0.44658493    -0.72600
O70         O  0.06878674  0.40400500  0.05709943    -0.72700
O71         O  0.07176347  0.49661376  0.04739708    -0.72600
O72         O  0.06673956  0.47842382  0.44226581    -0.72200
O73         O  0.98877512  0.48761960  0.49681832    -0.72600
O74         O  0.14860603  0.48072542  0.49637736    -0.72600
Ni75       Ni  0.06115967  0.38724696  0.50099527     1.25400
Ni76       Ni  0.06918515  0.48740609  0.49645844     1.25400
C77         C  0.17127457  0.43303433  0.49842731     0.89600
C78         C  0.95908856  0.44199478  0.49900396     0.89600
C79         C  0.06154462  0.42984433  0.42664924     0.89600
C80         C  0.07313168  0.45441362  0.06981513     0.89800
C81         C  0.05240679  0.43158148  0.13578737    -0.14600
C82         C  0.08029190  0.46397793  0.11095198    -0.29700
H83         H  0.02160089  0.40009369  0.12550380     0.14500
H84         H  0.10694043  0.49914239  0.12094393     0.15000
C85         C  0.08894059  0.45792007  0.36232256    -0.14600
C86         C  0.05770504  0.42500994  0.38505831    -0.29700
H87         H  0.12064220  0.48701338  0.37442915     0.14500
H88         H  0.02999177  0.39222693  0.37282785     0.15000
C89         C  0.09246018  0.28175187  0.25365264    -0.16600
C90         C  0.09907881  0.23175112  0.25413690     0.07400
C91         C  0.10778568  0.17331694  0.25403588     0.09300
C92         C  0.11678919  0.12377888  0.25345338    -0.17500
C93         C  0.25592135  0.98164156  0.25029582    -0.16600
C94         C  0.30517499  0.97188234  0.25013112     0.07400
C95         C  0.36340371  0.96299826  0.25001615     0.09300
C96         C  0.41343806  0.95732506  0.24997473    -0.17500
C97         C  0.54969410  0.93054554  0.11282306    -0.14600
C98         C  0.58165644  0.96288860  0.13655386    -0.29700
H99         H  0.51789690  0.90175974  0.12410317     0.14500
H100        H  0.60966910  0.99536871  0.12521164     0.15000
C101        C  0.58378043  0.92631259  0.36345758    -0.14600
C102        C  0.55251102  0.95639154  0.38657250    -0.29700
H103        H  0.61024840  0.89411934  0.37514078     0.14500
H104        H  0.52198171  0.98453584  0.37456837     0.15000
C105        C  0.52644534  0.61909768  0.49771808    -0.16600
C106        C  0.53512574  0.66931121  0.49730846     0.07400
C107        C  0.54313378  0.72841487  0.49706190     0.09300
C108        C  0.54860247  0.77897615  0.49719975    -0.17500
C109        C  0.38847045  0.46563331  0.49863911    -0.16600
C110        C  0.33965341  0.45090491  0.49851673     0.07400
C111        C  0.28158354  0.43772168  0.49843944     0.09300
C112        C  0.23124755  0.43184644  0.49842231    -0.17500
C113        C  0.74499682  0.93392097  0.24969547    -0.16600
C114        C  0.79516482  0.92984055  0.24924643     0.07400
C115        C  0.85363298  0.92312061  0.24859403     0.09300
C116        C  0.90306096  0.91454318  0.24799697    -0.17500
C117        C  0.04010420  0.77149807  0.24392128    -0.16600
C118        C  0.04551070  0.72133892  0.24339747     0.07400
C119        C  0.04889420  0.66220695  0.24345201     0.09300
C120        C  0.05195379  0.61176310  0.24405519    -0.17500
C121        C  0.74024416  0.42287821  0.49998575    -0.16600
C122        C  0.78986741  0.43389659  0.49953849     0.07400
C123        C  0.84868153  0.44171878  0.49920248     0.09300
C124        C  0.89916972  0.44409258  0.49906196    -0.17500
C125        C  0.60017814  0.27220747  0.50352990    -0.16600
C126        C  0.59102927  0.22212191  0.50410790     0.07400
C127        C  0.58275599  0.16313453  0.50431220     0.09300
C128        C  0.57724049  0.11263211  0.50400017    -0.17500
C129        C  0.68236445  0.40476209  0.50066081     0.82100
N130        N  0.63851282  0.43215594  0.00389307    -0.76200
C131        C  0.58327820  0.41601160  0.00158873     0.84500
N132        N  0.56818968  0.36048308  0.00182228    -0.76200
C133        C  0.61414898  0.33129567  0.50246061     0.84600
N134        N  0.66869855  0.34909184  0.50185332    -0.77900
C135        C  0.92742571  0.87009163  0.74860404     0.82100
N136        N  0.94218944  0.81569986  0.74835599    -0.76200
C137        C  0.99698437  0.80277801  0.74813394     0.84500
N138        N  0.03724975  0.84436617  0.74814922    -0.76200
C139        C  0.02295142  0.89910115  0.74839415     0.84600
N140        N  0.96775518  0.91195443  0.74861093    -0.77900
C141        C  0.51582145  0.55310304  0.99527563     0.82100
N142        N  0.55545223  0.51384539  0.99811368    -0.76200
C143        C  0.54017651  0.45837657  0.99849229     0.84500
N144        N  0.48489736  0.44240331  0.99605091    -0.76200
C145        C  0.44521207  0.48169561  0.99319489     0.84600
N146        N  0.46072435  0.53702395  0.99286490    -0.77900
O147        O  0.47127581  0.96489157  0.74957773    -0.72500
O148        O  0.63021812  0.94765465  0.74993346    -0.72600
O149        O  0.54978544  0.95678638  0.69521456    -0.72600
O150        O  0.55255179  0.95517204  0.80433805    -0.72700
O151        O  0.53765018  0.86216227  0.80329588    -0.72600
O152        O  0.53460450  0.86380035  0.69445510    -0.72600
O153        O  0.61670770  0.85445376  0.74896303    -0.72600
O154        O  0.45728675  0.87173143  0.74877091    -0.72600
Ni155      Ni  0.55140344  0.95945686  0.74979873     1.25400
Ni156      Ni  0.53628189  0.85967028  0.74884869     1.25400
C157        C  0.43834464  0.92126711  0.74913215     0.89600
C158        C  0.64944872  0.89831075  0.74942597     0.89600
C159        C  0.54136269  0.91051453  0.67698372     0.89600
C160        C  0.54499045  0.90833319  0.82167248     0.89800
O161        O  0.51558763  0.85556057  0.99493732    -0.72500
O162        O  0.51709998  0.01630185  0.99750021    -0.72600
O163        O  0.52246128  0.93710685  0.94204567    -0.72600
O164        O  0.52122979  0.94309241  0.55608583    -0.72700
O165        O  0.61464085  0.94314099  0.55356010    -0.72600
O166        O  0.61587330  0.94074993  0.94816541    -0.72600
O167        O  0.61054185  0.01863168  0.00366690    -0.72600
O168        O  0.60901772  0.85785698  0.00120842    -0.72600
Ni169      Ni  0.51300279  0.93561122  0.99599428     1.25400
Ni170      Ni  0.61311143  0.93857627  0.00266029     1.25400
C171        C  0.56198529  0.83049648  0.99770044     0.89600
C172        C  0.56412489  0.04367359  0.00097097     0.89600
C173        C  0.57112042  0.93931981  0.92732746     0.89600
C174        C  0.56959494  0.94241618  0.57266785     0.89800
C175        C  0.09680896  0.03909590  0.74880418     0.82100
N176        N  0.15109464  0.02415195  0.74869433    -0.76200
C177        C  0.16386508  0.96925266  0.74843156     0.84500
N178        N  0.12218548  0.92905273  0.74830611    -0.76200
C179        C  0.06753935  0.94355600  0.74841318     0.84600
N180        N  0.05488100  0.99885056  0.74867766    -0.77900
O181        O  0.11271267  0.34998947  0.74797253    -0.72500
O182        O  0.09541364  0.50945371  0.74389265    -0.72600
O183        O  0.11209969  0.43501870  0.80001148    -0.72600
O184        O  0.09642411  0.42624599  0.69180246    -0.72700
O185        O  0.00392576  0.41145807  0.69667286    -0.72600
O186        O  0.01961333  0.42069548  0.80531674    -0.72600
O187        O  0.00275699  0.49579851  0.74883166    -0.72600
O188        O  0.02005222  0.33691261  0.75316060    -0.72600
Ni189      Ni  0.10750634  0.43043938  0.74574913     1.25400
Ni190      Ni  0.00826367  0.41576515  0.75117798     1.25400
C191        C  0.06908296  0.31743496  0.75096220     0.89600
C192        C  0.04613683  0.52855385  0.74594121     0.89600
C193        C  0.06847257  0.43031960  0.82037934     0.89600
C194        C  0.04767210  0.41771974  0.67646275     0.89800
O195        O  0.14068567  0.39126044  0.99926067    -0.72500
O196        O  0.98075885  0.39120384  0.00789913    -0.72600
O197        O  0.05127623  0.37826055  0.95004201    -0.72600
O198        O  0.06365772  0.39606027  0.55511837    -0.72700
O199        O  0.07199009  0.48945629  0.55096847    -0.72600
O200        O  0.05461831  0.47083098  0.94013649    -0.72200
O201        O  0.98256244  0.48378157  0.99799662    -0.72600
O202        O  0.14248727  0.48388669  0.98957447    -0.72600
Ni203      Ni  0.06042138  0.38788138  0.00392119     1.25400
Ni204      Ni  0.06281036  0.48710706  0.99341202     1.25400
C205        C  0.16771199  0.43769777  0.99325013     0.89600
C206        C  0.95555608  0.43740895  0.00420701     0.89600
C207        C  0.05007684  0.42032945  0.92754720     0.89600
C208        C  0.06871306  0.44454429  0.57083756     0.89800
C209        C  0.04191747  0.41444469  0.63483590    -0.14600
C210        C  0.07216862  0.44891808  0.61249226    -0.29700
H211        H  0.01117692  0.38468137  0.62235598     0.14500
H212        H  0.09884111  0.48222862  0.62508843     0.15000
C213        C  0.07506295  0.43843076  0.86167778    -0.14600
C214        C  0.04299642  0.41029019  0.88648029    -0.29700
H215        H  0.10847679  0.46707242  0.87207263     0.14500
H216        H  0.01322270  0.37759116  0.87660747     0.15000
C217        C  0.07466626  0.25759326  0.75135155    -0.16600
C218        C  0.07695216  0.20708453  0.75097075     0.07400
C219        C  0.07962350  0.14791688  0.75012846     0.09300
C220        C  0.08464764  0.09771897  0.74941107    -0.17500
C221        C  0.22157701  0.95406940  0.74851123    -0.16600
C222        C  0.27075634  0.94398478  0.74867150     0.07400
C223        C  0.32889628  0.93464622  0.74887728     0.09300
C224        C  0.37879334  0.92809879  0.74901769    -0.17500
C225        C  0.57378495  0.94184097  0.61446564    -0.14600
C226        C  0.53794005  0.91074234  0.63518775    -0.29700
H227        H  0.60829461  0.96540018  0.62840998     0.14500
H228        H  0.50700080  0.88279484  0.62108769     0.15000
C229        C  0.54255945  0.90715171  0.86342188    -0.14600
C230        C  0.57571839  0.94060298  0.88568069    -0.29700
H231        H  0.51404305  0.87649440  0.87629561     0.14500
H232        H  0.60819679  0.96737985  0.87323766     0.15000
C233        C  0.53205201  0.61166998  0.99532808    -0.16600
C234        C  0.54399591  0.66124178  0.99567670     0.07400
C235        C  0.55492953  0.71983478  0.99631535     0.09300
C236        C  0.56061280  0.77028615  0.99694280    -0.17500
C237        C  0.38671878  0.46504054  0.99127623    -0.16600
C238        C  0.33702402  0.45362602  0.99040905     0.07400
C239        C  0.27825986  0.44367691  0.99034299     0.09300
C240        C  0.22779816  0.43867922  0.99115932    -0.17500
C241        C  0.70919915  0.89256871  0.74930369    -0.16600
C242        C  0.75964143  0.89019306  0.74913326     0.07400
C243        C  0.81874732  0.88748257  0.74893217     0.09300
C244        C  0.86889507  0.88242038  0.74878313    -0.17500
C245        C  0.01204998  0.74504049  0.74754776    -0.16600
C246        C  0.02246075  0.69594365  0.74680647     0.07400
C247        C  0.03238474  0.63794016  0.74589370     0.09300
C248        C  0.03930477  0.58809863  0.74547681    -0.17500
C249        C  0.73677957  0.40992909  0.00804755    -0.16600
C250        C  0.78641543  0.42155287  0.00845771     0.07400
C251        C  0.84511553  0.43160859  0.00791141     0.09300
C252        C  0.89553028  0.43655119  0.00662978    -0.17500
C253        C  0.59215008  0.26272729  0.00407979    -0.16600
C254        C  0.58081992  0.21303926  0.00348641     0.07400
C255        C  0.57064797  0.15434777  0.00259563     0.09300
C256        C  0.56540391  0.10387268  0.00181548    -0.17500
loop_ 
_geom_bond_atom_site_label_1 
_geom_bond_atom_site_label_2 
_geom_bond_distance 
_geom_bond_site_symmetry_2 
_ccdc_geom_bond_type 
C1            N6   1.357       .  A
C1          N130   1.357       .  A
C1          C249   1.437       .  S
N2            C3   1.359       .  A
N2          C129   1.357       .  A
C3            N4   1.361       .  A
C3           C15   1.469       .  S
N4          C133   1.357       .  A
C5            N6   1.357       .  A
C5          N132   1.356       .  A
C5          C253   1.435       .  S
C7            N8   1.354       .  A
C7           N12   1.357   1_655  A
C7          C116   1.434       .  S
N8            C9   1.354   1_655  A
C9           N10   1.360       .  A
C9          C117   1.438       .  S
N10          C11   1.363       .  A
C11          N12   1.360       .  A
C11          C51   1.474       .  S
C13          N14   1.359       .  A
C13          N18   1.357       .  A
C13         C105   1.438       .  S
N14          C15   1.361       .  A
C15          N16   1.358       .  A
N16          C17   1.355       .  A
C17          N18   1.356       .  A
C17         C109   1.433       .  S
O19         Ni27   1.917       .  S
O19          C29   1.279       .  A
O20         Ni27   1.916       .  S
O20          C30   1.279       .  A
O21         Ni27   1.922   1_545  S
O21          C31   1.281   1_545  A
O22         Ni27   1.922       .  S
O22          C32   1.282       .  A
O23         Ni28   1.919       .  S
O23          C32   1.280       .  A
O24         Ni28   1.918       .  S
O24          C31   1.282       .  A
O25         Ni28   1.918       .  S
O25          C30   1.280       .  A
O26         Ni28   1.920       .  S
O26          C29   1.280       .  A
Ni27        Ni28   2.391       .  S
C29          C96   1.436       .  S
C30         C113   1.434       .  S
C31          C98   1.474       .  S
C32         C101   1.472       .  S
O33         Ni41   1.920       .  S
O33          C43   1.280       .  A
O34         Ni41   1.919   1_545  S
O34          C44   1.280       .  A
O35         Ni41   1.920       .  S
O35          C45   1.281       .  A
O36        Ni169   1.919   1_554  S
O36          C46   1.280       .  A
O37        Ni170   1.921       .  S
O37          C46   1.282       .  A
O38         Ni42   1.921       .  S
O38          C45   1.282       .  A
O39         Ni42   1.918   1_545  S
O39          C44   1.280       .  A
O40         Ni42   1.920       .  S
O40          C43   1.280       .  A
Ni41        O164   1.919       .  S
Ni41        Ni42   2.391       .  S
Ni42        O165   1.920       .  S
C43         C108   1.438       .  S
C44         C128   1.436       .  S
C45         C102   1.473       .  S
C46          C97   1.472       .  S
C47          N48   1.356       .  A
C47          N52   1.358       .  A
C47          C92   1.439       .  S
N48          C49   1.356   1_545  A
C49          N50   1.358       .  A
C49          C93   1.436       .  S
N50          C51   1.360       .  A
C51          N52   1.362   1_565  A
O53         Ni61   1.922       .  S
O53          C63   1.281       .  A
O54         Ni61   1.912       .  S
O54          C64   1.278       .  A
O55         Ni61   1.922       .  S
O55          C65   1.281       .  A
O56         Ni61   1.922       .  S
O56          C66   1.282       .  A
O57         Ni62   1.913       .  S
O57          C66   1.279       .  A
O58         Ni62   1.912       .  S
O58          C65   1.280       .  A
O59         Ni62   1.928       .  S
O59          C64   1.282       .  A
O60         Ni62   1.918       .  S
O60          C63   1.280       .  A
Ni61        Ni62   2.393       .  S
C63          C89   1.438       .  S
C64         C120   1.438       .  S
C65          C85   1.471       .  S
C66          C81   1.469       .  S
O67         Ni75   1.924       .  S
O67          C77   1.281       .  A
O68         Ni75   1.912   1_655  S
O68          C78   1.279       .  A
O69         Ni75   1.916       .  S
O69          C79   1.280       .  A
O70        Ni203   1.915       .  S
O70          C80   1.281       .  A
O71        Ni204   1.920   1_554  S
O71          C80   1.280       .  A
O72         Ni76   1.919       .  S
O72          C79   1.282       .  A
O73         Ni76   1.919   1_655  S
O73          C78   1.280       .  A
O74         Ni76   1.907       .  S
O74          C77   1.277       .  A
Ni75        O198   1.916       .  S
Ni75        Ni76   2.394       .  S
Ni76        O199   1.919       .  S
C77         C112   1.432       .  S
C78         C124   1.432       .  S
C79          C86   1.469       .  S
C80          C82   1.471       .  S
C81          C82   1.340       .  D
C81          H83   1.087       .  S
C82          H84   1.087       .  S
C85          C86   1.341       .  D
C85          H87   1.087       .  S
C86          H88   1.087       .  S
C89          C90   1.208       .  T
C90          C91   1.415       .  S
C91          C92   1.208       .  T
C93          C94   1.206       .  T
C94          C95   1.413       .  S
C95          C96   1.206       .  T
C97          C98   1.342       .  D
C97          H99   1.087       .  S
C98         H100   1.087       .  S
C101        C102   1.340       .  D
C101        H103   1.086       .  S
C102        H104   1.087       .  S
C105        C106   1.207       .  T
C106        C107   1.415       .  S
C107        C108   1.207       .  T
C109        C110   1.204       .  T
C110        C111   1.409       .  S
C111        C112   1.204       .  T
C113        C114   1.205       .  T
C114        C115   1.410       .  S
C115        C116   1.205       .  T
C117        C118   1.207       .  T
C118        C119   1.414       .  S
C119        C120   1.207       .  T
C121        C129   1.433       .  S
C121        C122   1.204       .  T
C122        C123   1.409       .  S
C123        C124   1.204       .  T
C125        C133   1.436       .  S
C125        C126   1.206       .  T
C126        C127   1.413       .  S
C127        C128   1.206       .  T
C129        N134   1.356       .  A
N130        C131   1.360       .  A
C131        N132   1.359       .  A
C131        C143   1.469   1_554  S
C133        N134   1.355       .  A
C135        N136   1.355       .  A
C135        N140   1.361       .  A
C135        C244   1.437       .  S
N136        C137   1.354       .  A
C137        N138   1.355   1_655  A
C137        C245   1.435   1_655  S
N138        C139   1.360       .  A
C139        N140   1.363   1_455  A
C139        C179   1.474       .  S
C141        N142   1.356       .  A
C141        N146   1.357       .  A
C141        C233   1.435       .  S
N142        C143   1.359       .  A
C143        N144   1.360       .  A
N144        C145   1.357       .  A
C145        N146   1.357       .  A
C145        C237   1.437       .  S
O147       Ni155   1.920       .  S
O147        C157   1.280       .  A
O148       Ni155   1.911       .  S
O148        C158   1.278       .  A
O149       Ni155   1.922       .  S
O149        C159   1.282       .  A
O150       Ni155   1.923       .  S
O150        C160   1.282       .  A
O151       Ni156   1.917       .  S
O151        C160   1.280       .  A
O152       Ni156   1.917       .  S
O152        C159   1.280       .  A
O153       Ni156   1.927       .  S
O153        C158   1.282       .  A
O154       Ni156   1.916       .  S
O154        C157   1.279       .  A
Ni155      Ni156   2.393       .  S
C157        C224   1.436       .  S
C158        C241   1.437       .  S
C159        C226   1.472       .  S
C160        C229   1.473       .  S
O161       Ni169   1.911       .  S
O161        C171   1.278       .  A
O162       Ni169   1.923   1_545  S
O162        C172   1.281   1_556  A
O163       Ni169   1.918       .  S
O163        C173   1.282       .  A
O164        C174   1.282       .  A
O165        C174   1.281       .  A
O166       Ni170   1.922   1_556  S
O166        C173   1.281       .  A
O167       Ni170   1.911   1_545  S
O167        C172   1.278       .  A
O168       Ni170   1.923       .  S
O168        C171   1.281   1_554  A
Ni169      Ni170   2.393   1_556  S
C171        C236   1.434       .  S
C172        C256   1.434       .  S
C173        C230   1.473       .  S
C174        C225   1.473       .  S
C175        N176   1.355       .  A
C175        N180   1.361   1_545  A
C175        C220   1.437       .  S
N176        C177   1.354   1_545  A
C177        N178   1.356       .  A
C177        C221   1.436       .  S
N178        C179   1.361       .  A
C179        N180   1.362       .  A
O181       Ni189   1.927       .  S
O181        C191   1.282       .  A
O182       Ni189   1.916       .  S
O182        C192   1.279       .  A
O183       Ni189   1.914       .  S
O183        C193   1.279       .  A
O184       Ni189   1.913       .  S
O184        C194   1.280       .  A
O185       Ni190   1.922       .  S
O185        C194   1.281       .  A
O186       Ni190   1.922       .  S
O186        C193   1.282       .  A
O187       Ni190   1.918       .  S
O187        C192   1.280       .  A
O188       Ni190   1.911       .  S
O188        C191   1.278       .  A
Ni189      Ni190   2.393       .  S
C191        C217   1.437       .  S
C192        C248   1.434       .  S
C193        C213   1.471       .  S
C194        C209   1.470       .  S
O195       Ni203   1.924   1_556  S
O195        C205   1.281       .  A
O196       Ni203   1.913   1_655  S
O196        C206   1.279       .  A
O197       Ni203   1.917   1_556  S
O197        C207   1.279       .  A
O198        C208   1.281       .  A
O199        C208   1.281       .  A
O200       Ni204   1.919       .  S
O200        C207   1.282       .  A
O201       Ni204   1.924   1_655  S
O201        C206   1.281   1_556  A
O202       Ni204   1.913       .  S
O202        C205   1.279       .  A
Ni203      Ni204   2.393   1_554  S
C205        C240   1.436       .  S
C206        C252   1.436       .  S
C207        C214   1.470       .  S
C208        C210   1.470       .  S
C209        C210   1.342       .  D
C209        H211   1.087       .  S
C210        H212   1.087       .  S
C213        C214   1.339       .  D
C213        H215   1.087       .  S
C214        H216   1.087       .  S
C217        C218   1.207       .  T
C218        C219   1.414       .  S
C219        C220   1.207       .  T
C221        C222   1.206       .  T
C222        C223   1.412       .  S
C223        C224   1.206       .  T
C225        C226   1.341       .  D
C225        H227   1.087       .  S
C226        H228   1.087       .  S
C229        C230   1.341       .  D
C229        H231   1.087       .  S
C230        H232   1.087       .  S
C233        C234   1.205       .  T
C234        C235   1.411       .  S
C235        C236   1.205       .  T
C237        C238   1.207       .  T
C238        C239   1.413       .  S
C239        C240   1.206       .  T
C241        C242   1.207       .  T
C242        C243   1.414       .  S
C243        C244   1.207       .  T
C245        C246   1.205       .  T
C246        C247   1.411       .  S
C247        C248   1.205       .  T
C249        C250   1.206       .  T
C250        C251   1.413       .  S
C251        C252   1.206       .  T
C253        C254   1.205       .  T
C254        C255   1.411       .  S
C255        C256   1.205       .  T
