geometry optimzed in LAMMPS
_audit_creation_date              2020-12-01 
_audit_creation_method            'lammps2cif' 
_symmetry_space_group_name_H-M    'P1' 
_symmetry_Int_Tables_number       1 
_symmetry_cell_setting            triclinic 
loop_ 
_symmetry_equiv_pos_as_xyz 
  x,y,z 
_cell_length_a                    24.92942244 
_cell_length_b                    23.824503007667733 
_cell_length_c                    24.823031704029823 
_cell_angle_alpha                 89.30263422178302 
_cell_angle_beta                  89.88135337081773 
_cell_angle_gamma                 89.41743975218294 
loop_ 
_atom_site_label 
_atom_site_type_symbol 
_atom_site_fract_x 
_atom_site_fract_y 
_atom_site_fract_z 
_atom_site_charge 
N1          N  0.59979830  0.57608371  0.92484039    -0.05500
N2          N  0.63314416  0.58374605  0.88380099    -0.57600
N3          N  0.55961117  0.60877072  0.05128784    -0.05200
N4          N  0.56703889  0.64142933  0.09306106    -0.59800
N5          N  0.59646594  0.56879441  0.05009434    -0.04800
N6          N  0.62974244  0.57357650  0.09133910    -0.57600
N7          N  0.56418499  0.61730815  0.92665011    -0.04500
N8          N  0.57263328  0.65358855  0.88685849    -0.60100
C9          C  0.61571850  0.63236275  0.86044998     0.96700
C10         C  0.61068111  0.61910731  0.11774357     0.96400
N11         N  0.39281529  0.57842395  0.04179745    -0.05700
N12         N  0.35781348  0.58148964  0.08162011    -0.58200
N13         N  0.43849153  0.62473598  0.92267940    -0.03800
N14         N  0.43634536  0.66146169  0.88253650    -0.59500
N15         N  0.40029730  0.58752279  0.91779262    -0.05700
N16         N  0.37125288  0.59809373  0.87427491    -0.58500
N17         N  0.43149723  0.61497453  0.04801773    -0.03500
N18         N  0.42319624  0.64388887  0.09270156    -0.59600
Mn19       Mn  0.49855733  0.61854269  0.98767796     1.18400
C20         C  0.37690137  0.62239249  0.11311911     0.98700
C21         C  0.39425369  0.64445203  0.85285771     0.99400
N22         N  0.59024791  0.43686677  0.04459635    -0.05800
N23         N  0.62247276  0.42511919  0.08536345    -0.62100
N24         N  0.55547786  0.40565946  0.91927532    -0.04600
N25         N  0.56121416  0.37079914  0.87891253    -0.62700
N26         N  0.59457134  0.44228400  0.92000931    -0.05300
N27         N  0.62820962  0.43267027  0.87973730    -0.62300
N28         N  0.55100728  0.40034717  0.04288757    -0.04200
N29         N  0.55594168  0.36291021  0.08251088    -0.63000
Mn30       Mn  0.59736778  0.50600932  0.98468554     1.10700
C31         C  0.60073641  0.37896709  0.10873288     1.00000
C32         C  0.60651152  0.38794544  0.85459135     1.00000
N33         N  0.39696010  0.45643474  0.91112717    -0.05300
N34         N  0.36754464  0.45499653  0.86716133    -0.60600
N35         N  0.42468603  0.40846151  0.03552569    -0.04600
N36         N  0.41431365  0.37298281  0.07520365    -0.57400
N37         N  0.38861858  0.44904235  0.03396494    -0.05900
N38         N  0.35284329  0.44226632  0.07250343    -0.60200
N39         N  0.43205822  0.41483176  0.91183827    -0.04900
N40         N  0.42747270  0.38429965  0.86800361    -0.57400
Mn41       Mn  0.39300343  0.51801612  0.97580969     1.20200
Mn42       Mn  0.49065175  0.40546856  0.97774684     1.10100
Cl43       Cl  0.49505043  0.51211527  0.98161781    -0.85400
C44         C  0.38703515  0.41001113  0.84070874     0.97000
C45         C  0.36937015  0.39473691  0.09759999     0.96800
N46         N  0.48658287  0.94127496  0.37609772    -0.05500
N47         N  0.48122799  0.89838655  0.34397022    -0.57600
N48         N  0.44921918  0.07325794  0.40703080    -0.05200
N49         N  0.41657254  0.11576419  0.39617900    -0.59800
N50         N  0.48561250  0.06826339  0.36903521    -0.04800
N51         N  0.47922599  0.10749902  0.33179123    -0.57600
N52         N  0.44723838  0.94403728  0.41123334    -0.04500
N53         N  0.41407559  0.90186303  0.40408644    -0.60100
C54         C  0.43622052  0.87411658  0.36196066     0.96700
C55         C  0.43625091  0.13666922  0.34928851     0.96400
N56         N  0.48430756  0.07193366  0.57460509    -0.05700
N57         N  0.47861177  0.11316194  0.60916287    -0.58200
N58         N  0.44354411  0.94760778  0.53434729    -0.03800
N59         N  0.40586096  0.90970354  0.53718488    -0.59500
N60         N  0.47931790  0.94080172  0.57291741    -0.05700
N61         N  0.46513320  0.89698114  0.60372179    -0.58500
N62         N  0.44790827  0.07613846  0.53628182    -0.03500
N63         N  0.41622873  0.12031065  0.54469497    -0.59600
Mn64       Mn  0.44531137  0.01127579  0.47236765     1.18400
C65         C  0.43619099  0.14300085  0.59036496     0.98700
C66         C  0.41904709  0.87819568  0.58011487     0.99400
N67         N  0.60612462  0.06743465  0.36794160    -0.05800
N68         N  0.60629016  0.10708240  0.33091426    -0.62100
N69         N  0.64967008  0.94455885  0.41240898    -0.04600
N70         N  0.68362312  0.90203168  0.40925891    -0.62700
N71         N  0.61151743  0.94008875  0.37636751    -0.07400
N72         N  0.61879489  0.89446871  0.34746929    -0.62300
N73         N  0.64283336  0.07528654  0.40490331    -0.04200
N74         N  0.66940564  0.12194334  0.39296561    -0.63000
Mn75       Mn  0.54759135  0.00340035  0.37131725     1.10700
C76         C  0.64550321  0.14087060  0.34652357     1.00000
C77         C  0.66397116  0.87135573  0.36867842     1.00000
N78         N  0.61244600  0.94049963  0.57365606    -0.05300
N79         N  0.62172213  0.89595716  0.60513115    -0.60600
N80         N  0.64568473  0.07483986  0.53525841    -0.04600
N81         N  0.67803577  0.11788532  0.54087549    -0.57400
N82         N  0.61027937  0.07277286  0.57476252    -0.05900
N83         N  0.61785112  0.11556889  0.60772779    -0.60200
N84         N  0.65041461  0.94471756  0.53674592    -0.04900
N85         N  0.68549286  0.90298435  0.54206495    -0.57400
Mn86       Mn  0.54669106  0.00538938  0.57659395     1.20200
Mn87       Mn  0.64920030  0.01090670  0.47245680     1.10100
Cl88       Cl  0.54726525  0.00777168  0.47362574    -0.85400
C89         C  0.66751992  0.87282952  0.58481634     0.97000
C90         C  0.66044803  0.14324636  0.58599452     0.96800
N91         N  0.96897547  0.55140332  0.36487182    -0.05500
N92         N  0.92961674  0.55332553  0.32969937    -0.57600
N93         N  0.09054723  0.59051073  0.40469156    -0.05200
N94         N  0.13155036  0.62367298  0.39409086    -0.59800
N95         N  0.09052743  0.54861750  0.37064029    -0.04800
N96         N  0.13077412  0.55217699  0.33639620    -0.57600
N97         N  0.96533102  0.59298616  0.39920194    -0.04500
N98         N  0.92239193  0.62423957  0.38764905    -0.60100
C99         C  0.90084667  0.59868354  0.34401255     0.96700
C100        C  0.15609865  0.59892512  0.35141339     0.96400
N101        N  0.08224425  0.56136893  0.57302243    -0.05700
N102        N  0.12054043  0.56864559  0.60887795    -0.58200
N103        N  0.96036277  0.60273119  0.52790795    -0.03800
N104        N  0.92086649  0.64007866  0.53199743    -0.59500
N105        N  0.95750154  0.56541776  0.56748695    -0.05700
N106        N  0.91597424  0.57691037  0.59910397    -0.58500
N107        N  0.08589125  0.59919005  0.53393357    -0.03500
N108        N  0.12717504  0.63291243  0.54294448    -0.59600
Mn109      Mn  0.02564242  0.59896090  0.46628941     1.18400
C110        C  0.14848321  0.61317394  0.59006997     0.98700
C111        C  0.89332193  0.62361297  0.57649937     0.99400
N112        N  0.08905126  0.41888123  0.38043023    -0.05800
N113        N  0.13240169  0.40948455  0.35140660    -0.62100
N114        N  0.96373446  0.38568992  0.41245685    -0.04600
N115        N  0.92297675  0.35197750  0.40582311    -0.62700
N116        N  0.96648948  0.42247021  0.37283569    -0.05300
N117        N  0.92724918  0.41511923  0.33822259    -0.62300
N118        N  0.08553103  0.38190604  0.41984612    -0.04200
N119        N  0.12635046  0.34643727  0.41886736    -0.63000
Mn120      Mn  0.02901803  0.48544546  0.37076358     1.10700
C121        C  0.15503186  0.36423170  0.37604363     1.00000
C122        C  0.90080714  0.37093737  0.35957418     1.00000
N123        N  0.95443038  0.43086170  0.57314223    -0.05300
N124        N  0.91153069  0.42376451  0.60405459    -0.60600
N125        N  0.07830787  0.38717022  0.54229526    -0.04600
N126        N  0.11945048  0.35264798  0.54656109    -0.57400
N127        N  0.08079336  0.42758424  0.57777643    -0.05900
N128        N  0.12497912  0.42110267  0.60714080    -0.60200
N129        N  0.95647112  0.39122262  0.53672775    -0.04900
N130        N  0.91580541  0.35670506  0.54179029    -0.57400
Mn131      Mn  0.01855456  0.49640642  0.57524778     1.20200
Mn132      Mn  0.02064064  0.38521655  0.47814267     1.10100
Cl133      Cl  0.02338184  0.49192059  0.47287061    -0.85400
C134        C  0.88799492  0.37724292  0.58373211     0.97000
C135        C  0.14821273  0.37378817  0.58689410     0.96800
C136        C  0.77288977  0.34679470  0.28223309     0.80800
N137        N  0.74533699  0.36648249  0.23906399    -0.77500
C138        C  0.69847413  0.34234585  0.22446349     0.83300
N139        N  0.67932508  0.29755695  0.25355386    -0.77400
C140        C  0.70738385  0.27844618  0.29759398     0.83400
N141        N  0.75330098  0.30344118  0.31125107    -0.79100
C142        C  0.76836779  0.67151729  0.30344149     0.80800
N143        N  0.74864962  0.64165510  0.26126849    -0.77500
C144        C  0.70216486  0.65853431  0.23663168     0.83300
N145        N  0.67625809  0.70539792  0.25418802    -0.77400
C146        C  0.69586805  0.73509763  0.29572272     0.83400
N147        N  0.74172756  0.71781804  0.32018586    -0.79100
C148        C  0.69562544  0.34741249  0.73516446     0.80800
N149        N  0.74038615  0.36829758  0.71219484    -0.77500
C150        C  0.76288737  0.34364616  0.66881583     0.83300
N151        N  0.74010574  0.29664045  0.64789063    -0.77400
C152        C  0.69470165  0.27490794  0.67087528     0.83400
N153        N  0.67280772  0.30070133  0.71448131    -0.79100
C154        C  0.34715881  0.75316285  0.32437607     0.80800
N155        N  0.36825909  0.73559858  0.27697437    -0.77500
C156        C  0.34514948  0.69363428  0.24920589     0.83300
N157        N  0.30001749  0.66884307  0.26954306    -0.77400
C158        C  0.27905774  0.68679641  0.31745673     0.83400
N159        N  0.30278585  0.72877695  0.34415537    -0.79100
C160        C  0.35186192  0.75207132  0.65359476     0.80800
N161        N  0.30870817  0.73768537  0.62253477    -0.77500
C162        C  0.27514256  0.69542693  0.63899857     0.83300
N163        N  0.28528844  0.66837179  0.68680360    -0.77400
C164        C  0.32781491  0.68293800  0.71769962     0.83400
N165        N  0.36062706  0.72441125  0.70053791    -0.79100
C166        C  0.35791993  0.33139373  0.71046727     0.80800
N167        N  0.31189825  0.35761193  0.69491234    -0.77500
C168        C  0.28493632  0.34094832  0.65095372     0.83300
N169        N  0.30452272  0.29730985  0.62150515    -0.77400
C170        C  0.35094308  0.27071686  0.63620545     0.83400
N171        N  0.37737543  0.28782524  0.68112154    -0.79100
C172        C  0.70432847  0.66515184  0.73497727     0.80800
N173        N  0.68292585  0.71332458  0.71389395    -0.77500
C174        C  0.70427304  0.73799440  0.66902144     0.83300
N175        N  0.74813715  0.71372437  0.64485469    -0.77400
C176        C  0.77000817  0.66514667  0.66575198     0.83400
N177        N  0.74768141  0.64148660  0.71059575    -0.79100
C178        C  0.34513566  0.25644420  0.30430244     0.80800
N179        N  0.30111302  0.28314129  0.32351696    -0.77500
C180        C  0.27771708  0.32516199  0.29442811     0.83300
N181        N  0.29835157  0.34022843  0.24613099    -0.77400
C182        C  0.34229005  0.31346878  0.22651160     0.83400
N183        N  0.36573817  0.27166602  0.25566117    -0.79100
C184        C  0.20011596  0.34826263  0.60166818    -0.15800
C185        C  0.23362193  0.36942022  0.63772824    -0.31000
H186        H  0.21126146  0.31004083  0.58079841     0.13200
H187        H  0.22247814  0.40721371  0.65928828     0.13800
C188        C  0.19591076  0.63518404  0.61995204    -0.15800
C189        C  0.22795738  0.67843264  0.60511469    -0.31000
H190        H  0.20496581  0.61293362  0.65733502     0.13200
H191        H  0.21990007  0.70114307  0.56775939     0.13800
C192        C  0.20406351  0.61978863  0.32337412    -0.15800
C193        C  0.23040716  0.66366566  0.34218200    -0.31000
H194        H  0.21813505  0.59834157  0.28757183     0.13200
H195        H  0.21610428  0.68373222  0.37869748     0.13800
C196        C  0.22971637  0.35398550  0.31393836    -0.15800
C197        C  0.20448644  0.33694169  0.35862584    -0.31000
H198        H  0.21393839  0.38892806  0.29012152     0.13200
H199        H  0.21946831  0.30152531  0.38226370     0.13800
C200        C  0.84501701  0.65414012  0.59766804    -0.15800
C201        C  0.81803676  0.63648872  0.64181852    -0.31000
H202        H  0.83170013  0.69187234  0.57653668     0.13200
H203        H  0.83196209  0.59851662  0.66222693     0.13800
C204        C  0.83863176  0.35028046  0.60394103    -0.15800
C205        C  0.81196283  0.36960877  0.64665201    -0.31000
H206        H  0.82434917  0.31339143  0.58327946     0.13200
H207        H  0.82685957  0.40651691  0.66691150     0.13800
C208        C  0.82403726  0.37134343  0.29796324    -0.15800
C209        C  0.85226851  0.34716768  0.33798232    -0.31000
H210        H  0.83794669  0.40926125  0.27786131     0.13200
H211        H  0.83824727  0.30929611  0.35807098     0.13800
C212        C  0.81861574  0.65599715  0.33173944    -0.15800
C213        C  0.85098239  0.61457476  0.31551029    -0.31000
H214        H  0.82954302  0.68010376  0.36687911     0.13200
H215        H  0.84032822  0.59037495  0.28036669     0.13800
C216        C  0.68638897  0.19463875  0.60724328    -0.15800
C217        C  0.66835504  0.22336818  0.65009809    -0.31000
H218        H  0.72176935  0.20948286  0.58603613     0.13200
H219        H  0.63269471  0.20870192  0.67096257     0.13800
C220        C  0.37111809  0.22236461  0.60421012    -0.15800
C221        C  0.41540442  0.19319560  0.61862581    -0.31000
H222        H  0.34856991  0.20987004  0.56900401     0.13200
H223        H  0.43751053  0.20567814  0.65410849     0.13800
C224        C  0.41327799  0.18383153  0.31907400    -0.15800
C225        C  0.36936744  0.21083400  0.33611888    -0.31000
H226        H  0.43260262  0.19573883  0.28142533     0.13200
H227        H  0.35031611  0.19877007  0.37388537     0.13800
C228        C  0.69169296  0.23007580  0.33128987    -0.15800
C229        C  0.65761100  0.19169259  0.31480855    -0.31000
H230        H  0.71219464  0.22373670  0.36956011     0.13200
H231        H  0.63760484  0.19726992  0.27619713     0.13800
C232        C  0.39029670  0.79743863  0.63892982    -0.15800
C233        C  0.38381570  0.83072797  0.59583920    -0.31000
H234        H  0.42426006  0.80429743  0.66529182     0.13200
H235        H  0.34935170  0.82389677  0.57011849     0.13800
C236        C  0.69510584  0.82052625  0.60488917    -0.15800
C237        C  0.67810087  0.79073902  0.64805616    -0.31000
H238        H  0.73048877  0.80629652  0.58319242     0.13200
H239        H  0.64285225  0.80567708  0.66957727     0.13800
C240        C  0.68915703  0.81885638  0.35141630    -0.15800
C241        C  0.66840422  0.78684005  0.31281838    -0.31000
H242        H  0.72622472  0.80648024  0.37141526     0.13200
H243        H  0.63133068  0.79929586  0.29284489     0.13800
C244        C  0.37029187  0.79984001  0.35377807    -0.15800
C245        C  0.41423945  0.82516543  0.33582762    -0.31000
H246        H  0.35022278  0.81437624  0.39001950     0.13200
H247        H  0.43471772  0.81034999  0.29994594     0.13800
C248        C  0.67060720  0.36690831  0.17711463    -0.15800
C249        C  0.62402859  0.34941798  0.15636421    -0.31000
H250        H  0.69039880  0.40254372  0.15819713     0.13200
H251        H  0.60333811  0.31370564  0.17396657     0.13800
C252        C  0.63422286  0.64446196  0.16616269    -0.15800
C253        C  0.68028107  0.62746356  0.19002083    -0.31000
H254        H  0.61252514  0.68046240  0.18185676     0.13200
H255        H  0.70238958  0.59159015  0.17462194     0.13800
C256        C  0.35029170  0.63853064  0.16435851    -0.15800
C257        C  0.37037883  0.67712073  0.19736535    -0.31000
H258        H  0.31339242  0.61735696  0.17530431     0.13200
H259        H  0.40723453  0.69813336  0.18588022     0.13800
C260        C  0.36538141  0.33058337  0.17474163    -0.15800
C261        C  0.34351846  0.37268456  0.14589068    -0.31000
H262        H  0.40199958  0.30990101  0.16126305     0.13200
H263        H  0.30719871  0.39385912  0.15941617     0.13800
C264        C  0.63919474  0.65944170  0.81156017    -0.15800
C265        C  0.68125099  0.63786041  0.78415308    -0.31000
H266        H  0.62078861  0.69850798  0.79769623     0.13200
H267        H  0.69957708  0.59879715  0.79819562     0.13800
C268        C  0.67336112  0.37623126  0.78254509    -0.15800
C269        C  0.62843598  0.35952249  0.80702353    -0.31000
H270        H  0.69466533  0.41230912  0.79764353     0.13200
H271        H  0.60677350  0.32367996  0.79198863     0.13800
C272        C  0.36512930  0.39209389  0.78899209    -0.15800
C273        C  0.38474211  0.34877582  0.76053433    -0.31000
H274        H  0.33058445  0.41580809  0.77430172     0.13200
H275        H  0.41966042  0.32532748  0.77473148     0.13800
C276        C  0.33904702  0.65410460  0.76971852    -0.15800
C277        C  0.37854146  0.67216941  0.80198457    -0.31000
H278        H  0.31534150  0.61785826  0.78134047     0.13200
H279        H  0.40180217  0.70871736  0.79034605     0.13800
loop_ 
_geom_bond_atom_site_label_1 
_geom_bond_atom_site_label_2 
_geom_bond_distance 
_geom_bond_site_symmetry_2 
_ccdc_geom_bond_type 
N1            N2   1.326       .  A
N1            N7   1.318       .  A
N1          Mn30   2.222       .  S
N2            C9   1.357       .  A
N3            N5   1.317       .  A
N3            N4   1.318       .  A
N3          Mn19   2.204   1_554  S
N4           C10   1.351       .  A
N5            N6   1.326       .  A
N5          Mn30   2.221   1_554  S
N6           C10   1.356       .  A
N7            N8   1.323       .  A
N7          Mn19   2.228       .  S
N8            C9   1.354       .  A
C9          C264   1.489       .  S
C10         C252   1.477       .  S
N11          N17   1.316       .  A
N11          N12   1.319       .  A
N11         Mn41   2.194   1_554  S
N12          C20   1.348       .  A
N13          N14   1.319       .  A
N13          N15   1.314       .  A
N13         Mn19   2.206       .  S
N14          C21   1.352       .  A
N15          N16   1.322       .  A
N15         Mn41   2.190       .  S
N16          C21   1.352       .  A
N17          N18   1.328       .  A
N17         Mn19   2.244   1_554  S
N18          C20   1.362       .  A
Mn19        Cl43   2.544       .  S
C20         C256   1.486       .  S
C21         C277   1.470       .  S
N22          N23   1.319       .  A
N22          N28   1.317       .  A
N22         Mn30   2.214   1_554  S
N23          C31   1.354       .  A
N24          N26   1.315       .  A
N24          N25   1.316       .  A
N24         Mn42   2.170       .  S
N25          C32   1.344       .  A
N26          N27   1.324       .  A
N26         Mn30   2.225       .  S
N27          C32   1.359       .  A
N28          N29   1.325       .  A
N28         Mn42   2.212   1_554  S
N29          C31   1.355       .  A
Mn30        Cl43   2.555       .  S
C31         C249   1.485       .  S
C32         C269   1.470       .  S
N33          N34   1.317       .  A
N33          N39   1.315       .  A
N33         Mn41   2.190       .  S
N34          C44   1.349       .  A
N35          N36   1.317       .  A
N35          N37   1.314       .  A
N35         Mn42   2.181   1_554  S
N36          C45   1.351       .  A
N37          N38   1.316       .  A
N37         Mn41   2.177   1_554  S
N38          C45   1.347       .  A
N39          N40   1.322       .  A
N39         Mn42   2.203       .  S
N40          C44   1.353       .  A
Mn41        Cl43   2.551       .  S
Mn42        Cl43   2.547       .  S
C44         C272   1.466       .  S
C45         C261   1.455       .  S
N46          N47   1.312       .  A
N46          N52   1.313       .  A
N46         Mn75   2.135   1_565  S
N47          C54   1.341       .  A
N48          N50   1.313       .  A
N48          N49   1.318       .  A
N48         Mn64   2.183       .  S
N49          C55   1.354       .  A
N50          N51   1.315       .  A
N50         Mn75   2.174       .  S
N51          C55   1.345       .  A
N52          N53   1.322       .  A
N52         Mn64   2.220   1_565  S
N53          C54   1.357       .  A
C54         C245   1.454       .  S
C55         C224   1.456       .  S
N56          N62   1.318       .  A
N56          N57   1.318       .  A
N56         Mn86   2.210       .  S
N57          C65   1.349       .  A
N58          N59   1.311       .  A
N58          N60   1.317       .  A
N58         Mn64   2.148   1_565  S
N59          C66   1.336       .  A
N60          N61   1.337       .  A
N60         Mn86   2.292   1_565  S
N61          C66   1.372       .  A
N62          N63   1.328       .  A
N62         Mn64   2.230       .  S
N63          C65   1.359       .  A
Mn64        Cl88   2.542       .  S
C65         C221   1.482       .  S
C66         C233   1.487       .  S
N67          N68   1.310       .  A
N67          N73   1.314       .  A
N67         Mn75   2.123       .  S
N68          C76   1.334       .  A
N69          N71   1.313       .  A
N69          N70   1.317       .  A
N69         Mn87   2.186   1_565  S
N70          C77   1.348       .  A
N71          N72   1.320       .  A
N71         Mn75   2.186   1_565  S
N72          C77   1.353       .  A
N73          N74   1.330       .  A
N73         Mn87   2.263       .  S
N74          C76   1.368       .  A
Mn75        Cl88   2.543       .  S
C76         C229   1.470       .  S
C77         C240   1.462       .  S
N78          N79   1.329       .  A
N78          N84   1.320       .  A
N78         Mn86   2.243   1_565  S
N79          C89   1.361       .  A
N80          N81   1.320       .  A
N80          N82   1.319       .  A
N80         Mn87   2.194       .  S
N81          C90   1.349       .  A
N82          N83   1.330       .  A
N82         Mn86   2.268       .  S
N83          C90   1.363       .  A
N84          N85   1.323       .  A
N84         Mn87   2.230   1_565  S
N85          C89   1.352       .  A
Mn86        Cl88   2.556       .  S
Mn87        Cl88   2.543       .  S
C89         C236   1.498       .  S
C90         C216   1.493       .  S
N91          N92   1.315       .  A
N91          N97   1.317       .  A
N91        Mn120   2.163   1_655  S
N92          C99   1.342       .  A
N93          N95   1.316       .  A
N93          N94   1.322       .  A
N93        Mn109   2.233       .  S
N94         C100   1.360       .  A
N95          N96   1.316       .  A
N95        Mn120   2.159       .  S
N96         C100   1.343       .  A
N97          N98   1.328       .  A
N97        Mn109   2.253   1_655  S
N98          C99   1.363       .  A
C99         C213   1.475       .  S
C100        C192   1.470       .  S
N101        N107   1.320       .  A
N101        N102   1.321       .  A
N101       Mn131   2.229       .  S
N102        C110   1.353       .  A
N103        N104   1.325       .  A
N103        N105   1.319       .  A
N103       Mn109   2.233   1_655  S
N104        C111   1.356       .  A
N105        N106   1.326       .  A
N105       Mn131   2.236   1_655  S
N106        C111   1.358       .  A
N107        N108   1.333       .  A
N107       Mn109   2.255       .  S
N108        C110   1.362       .  A
Mn109      Cl133   2.555       .  S
C110        C188   1.500       .  S
C111        C200   1.498       .  S
N112        N113   1.316       .  A
N112        N118   1.312       .  A
N112       Mn120   2.181       .  S
N113        C121   1.352       .  A
N114        N116   1.311       .  A
N114        N115   1.313       .  A
N114       Mn132   2.163   1_655  S
N115        C122   1.346       .  A
N116        N117   1.318       .  A
N116       Mn120   2.175   1_655  S
N117        C122   1.350       .  A
N118        N119   1.316       .  A
N118       Mn132   2.170       .  S
N119        C121   1.346       .  A
Mn120      Cl133   2.545       .  S
C121        C197   1.455       .  S
C122        C209   1.448       .  S
N123        N124   1.326       .  A
N123        N129   1.316       .  A
N123       Mn131   2.247   1_655  S
N124        C134   1.362       .  A
N125        N126   1.312       .  A
N125        N127   1.315       .  A
N125       Mn132   2.149       .  S
N126        C135   1.339       .  A
N127        N128   1.329       .  A
N127       Mn131   2.246       .  S
N128        C135   1.363       .  A
N129        N130   1.317       .  A
N129       Mn132   2.165   1_655  S
N130        C134   1.344       .  A
Mn131      Cl133   2.547       .  S
Mn132      Cl133   2.546       .  S
C134        C204   1.478       .  S
C135        C184   1.469       .  S
C136        N137   1.351       .  A
C136        N141   1.347       .  A
C136        C208   1.464       .  S
N137        C138   1.359       .  A
C138        N139   1.370       .  A
C138        C248   1.478       .  S
N139        C140   1.370       .  A
C140        N141   1.342       .  A
C140        C228   1.471       .  S
C142        N143   1.368       .  A
C142        N147   1.351       .  A
C142        C212   1.479       .  S
N143        C144   1.366       .  A
C144        N145   1.360       .  A
C144        C253   1.489       .  S
N145        C146   1.353       .  A
C146        N147   1.354       .  A
C146        C241   1.471       .  S
C148        N149   1.349       .  A
C148        N153   1.361       .  A
C148        C268   1.474       .  S
N149        C150   1.351       .  A
C150        N151   1.369       .  A
C150        C205   1.479       .  S
N151        C152   1.370       .  A
C152        N153   1.362       .  A
C152        C217   1.496       .  S
C154        N155   1.357       .  A
C154        N159   1.344       .  A
C154        C244   1.462       .  S
N155        C156   1.355       .  A
C156        N157   1.369       .  A
C156        C257   1.487       .  S
N157        C158   1.370       .  A
C158        N159   1.349       .  A
C158        C193   1.468       .  S
C160        N161   1.374       .  A
C160        N165   1.349       .  A
C160        C232   1.493       .  S
N161        C162   1.374       .  A
C162        N163   1.366       .  A
C162        C189   1.509       .  S
N163        C164   1.360       .  A
C164        N165   1.353       .  A
C164        C276   1.481       .  S
C166        N167   1.355       .  A
C166        N171   1.360       .  A
C166        C273   1.478       .  S
N167        C168   1.349       .  A
C168        N169   1.364       .  A
C168        C185   1.478       .  S
N169        C170   1.362       .  A
C170        N171   1.365       .  A
C170        C220   1.490       .  S
C172        N173   1.360       .  A
C172        N177   1.358       .  A
C172        C265   1.493       .  S
N173        C174   1.363       .  A
C174        N175   1.372       .  A
C174        C237   1.498       .  S
N175        C176   1.371       .  A
C176        N177   1.362       .  A
C176        C201   1.498       .  S
C178        N179   1.352       .  A
C178        N183   1.358       .  A
C178        C225   1.462       .  S
N179        C180   1.355       .  A
C180        N181   1.350       .  A
C180        C196   1.458       .  S
N181        C182   1.354       .  A
C182        N183   1.353       .  A
C182        C260   1.462       .  S
C184        C185   1.333       .  D
C184        H186   1.087       .  S
C185        H187   1.086       .  S
C188        C189   1.357       .  D
C188        H190   1.086       .  S
C189        H191   1.086       .  S
C192        C193   1.330       .  D
C192        H194   1.086       .  S
C193        H195   1.088       .  S
C196        C197   1.335       .  D
C196        H198   1.086       .  S
C197        H199   1.085       .  S
C200        C201   1.350       .  D
C200        H202   1.085       .  S
C201        H203   1.086       .  S
C204        C205   1.334       .  D
C204        H206   1.086       .  S
C205        H207   1.087       .  S
C208        C209   1.340       .  D
C208        H210   1.086       .  S
C209        H211   1.086       .  S
C212        C213   1.334       .  D
C212        H214   1.087       .  S
C213        H215   1.086       .  S
C216        C217   1.346       .  D
C216        H218   1.086       .  S
C217        H219   1.087       .  S
C220        C221   1.345       .  D
C220        H222   1.086       .  S
C221        H223   1.086       .  S
C224        C225   1.335       .  D
C224        H226   1.086       .  S
C225        H227   1.087       .  S
C228        C229   1.324       .  D
C228        H230   1.088       .  S
C229        H231   1.087       .  S
C232        C233   1.333       .  D
C232        H234   1.086       .  S
C233        H235   1.086       .  S
C236        C237   1.348       .  D
C236        H238   1.086       .  S
C237        H239   1.087       .  S
C240        C241   1.340       .  D
C240        H242   1.086       .  S
C241        H243   1.087       .  S
C244        C245   1.330       .  D
C244        H246   1.087       .  S
C245        H247   1.087       .  S
C248        C249   1.343       .  D
C248        H250   1.087       .  S
C249        H251   1.086       .  S
C252        C253   1.349       .  D
C252        H254   1.085       .  S
C253        H255   1.085       .  S
C256        C257   1.340       .  D
C256        H258   1.086       .  S
C257        H259   1.087       .  S
C260        C261   1.338       .  D
C260        H262   1.087       .  S
C261        H263   1.087       .  S
C264        C265   1.349       .  D
C264        H266   1.086       .  S
C265        H267   1.086       .  S
C268        C269   1.335       .  D
C268        H270   1.086       .  S
C269        H271   1.085       .  S
C272        C273   1.345       .  D
C272        H274   1.086       .  S
C273        H275   1.087       .  S
C276        C277   1.348       .  D
C276        H278   1.087       .  S
C277        H279   1.087       .  S
