geometry optimzed in LAMMPS
_audit_creation_date              2020-12-01 
_audit_creation_method            'lammps2cif' 
_symmetry_space_group_name_H-M    'P1' 
_symmetry_Int_Tables_number       1 
_symmetry_cell_setting            triclinic 
loop_ 
_symmetry_equiv_pos_as_xyz 
  x,y,z 
_cell_length_a                    28.99320778 
_cell_length_b                    28.99341898098874 
_cell_length_c                    35.10156956282719 
_cell_angle_alpha                 89.9969408661499 
_cell_angle_beta                  89.99845856760523 
_cell_angle_gamma                 90.10468156886549 
loop_ 
_atom_site_label 
_atom_site_type_symbol 
_atom_site_fract_x 
_atom_site_fract_y 
_atom_site_fract_z 
_atom_site_charge 
C1          C  0.00013476  0.00010310  0.91784302     0.84100
N2          N  0.00022763  0.45933825  0.89844316    -0.74200
C3          C  0.50032875  0.45979278  0.85959191     0.86500
N4          N  0.50037764  0.50035869  0.84028500    -0.74200
C5          C  0.50015803  0.04103365  0.85969010     0.86600
N6          N  0.00020902  0.04062674  0.89849939    -0.75900
C7          C  0.25026830  0.24994154  0.60819225     0.84100
N8          N  0.20975286  0.24993241  0.62755123    -0.74200
C9          C  0.20976335  0.24989078  0.66621382     0.86500
N10         N  0.25032171  0.24986194  0.68553084    -0.74200
C11         C  0.29085404  0.24986968  0.66617241     0.86600
N12         N  0.29080919  0.24991338  0.62751060    -0.75900
O13         O  0.99716753  0.20087343  0.82038959    -0.54000
C14         C  0.50027371  0.33737428  0.80252067     0.78600
O15         O  0.04953739  0.24589808  0.70571794    -0.55100
C16         C  0.00038487  0.16304863  0.80274599     0.78600
C17         C  0.41333010  0.25006729  0.72319500     0.81000
Cd18       Cd  0.00035434  0.24997038  0.76301305     1.37500
O19         O  0.50393983  0.29959663  0.82017458    -0.54000
O20         O  0.41531984  0.24675366  0.75903796    -0.52800
C21         C  0.08733092  0.24992793  0.72331370     0.81000
O22         O  0.45114343  0.25352012  0.70554263    -0.55200
O23         O  0.49661942  0.33534005  0.76670180    -0.53600
O24         O  0.00359826  0.16500939  0.76689514    -0.53600
O25         O  0.08532038  0.25397426  0.75910404    -0.52800
O26         O  0.24705022  0.45127662  0.32027030    -0.54000
C27         C  0.25013666  0.08737088  0.30247659     0.78600
O28         O  0.29929156  0.99792040  0.20564363    -0.55100
C29         C  0.25045332  0.41348935  0.30259389     0.78600
C30         C  0.16313847  0.00000959  0.22345318     0.81000
Cd31       Cd  0.25032617  0.50048765  0.26295997     1.37500
O32         O  0.25213846  0.04957506  0.32028934    -0.54000
O33         O  0.16538845  0.49634061  0.25914937    -0.52800
C34         C  0.33727087  0.50054043  0.22325561     0.81000
O35         O  0.20106345  0.50455304  0.20572085    -0.55200
O36         O  0.24814252  0.08530052  0.26656982    -0.54000
O37         O  0.25380754  0.41552221  0.26675416    -0.53600
O38         O  0.33517668  0.00263952  0.25925950    -0.52800
C39         C  0.00007101  0.00000123  0.10851453     0.84100
N40         N  0.04060911  0.99995481  0.12783462    -0.74200
C41         C  0.04064530  0.99992540  0.16649509     0.86500
N42         N  0.00011529  0.99994735  0.18585035    -0.74200
C43         C  0.45958521  0.00009553  0.16633569     0.86600
N44         N  0.45961964  0.00018841  0.12767577    -0.75900
C45         C  0.25029741  0.25032014  0.41749811     0.84100
N46         N  0.25021953  0.20982548  0.39811536    -0.74200
C47         C  0.25023659  0.20987138  0.35945375     0.86500
N48         N  0.25033098  0.25044716  0.34015901    -0.74200
C49         C  0.25040995  0.29096022  0.35954123     0.86600
N50         N  0.25039204  0.29087982  0.39820389    -0.75900
C51         C  0.41681605  0.50046530  0.18662094    -0.09400
C52         C  0.38056850  0.50052694  0.20345112    -0.11000
C53         C  0.08356697  0.99990026  0.18686826    -0.09400
C54         C  0.11981327  0.99992172  0.20369675    -0.11000
C55         C  0.25049023  0.37017068  0.32237523    -0.09400
C56         C  0.25047660  0.33391124  0.33919450    -0.11000
C57         C  0.25016918  0.16698210  0.33902151    -0.09400
C58         C  0.25013828  0.13073233  0.32219127    -0.11000
C59         C  0.25027380  0.25024716  0.45839062    -0.14700
C60         C  0.25025515  0.25017024  0.49273555     0.09400
C61         C  0.25024120  0.25007714  0.53295449     0.11200
C62         C  0.25024296  0.25000675  0.56729958    -0.15500
C63         C  0.16685727  0.24989873  0.68662989    -0.09400
C64         C  0.13062873  0.24991240  0.70349576    -0.11000
C65         C  0.33378659  0.24987886  0.68654406    -0.09400
C66         C  0.37003092  0.24993621  0.70338503    -0.11000
C67         C  0.00004963  0.00003525  0.06762746    -0.14700
C68         C  0.00004658  0.00006442  0.03328570     0.09400
C69         C  0.00006101  0.00009353  0.99307191     0.11200
C70         C  0.00008738  0.00010719  0.95873010    -0.15500
C71         C  0.00037570  0.11976787  0.82257580    -0.09400
C72         C  0.00033657  0.08354236  0.83943914    -0.11000
C73         C  0.50026534  0.38067964  0.82230861    -0.09400
C74         C  0.50028171  0.41690552  0.83916817    -0.11000
C75         C  0.00025787  0.49986168  0.91778263     0.84100
N76         N  0.00011855  0.95957265  0.89851315    -0.74200
C77         C  0.50006834  0.95995015  0.85967055     0.86500
N78         N  0.50011632  0.00049981  0.84034216    -0.74200
C79         C  0.50043782  0.54087597  0.85965603     0.86600
N80         N  0.00033613  0.54039174  0.89844964    -0.75900
C81         C  0.25028032  0.75018738  0.60855308     0.84100
N82         N  0.20976523  0.75022459  0.62791241    -0.74200
C83         C  0.20977773  0.75021673  0.66657497     0.86500
N84         N  0.25033361  0.75017082  0.68589129    -0.74200
C85         C  0.29086170  0.75013248  0.66653500     0.86600
N86         N  0.29082176  0.75014334  0.62787320    -0.75900
O87         O  0.00008457  0.70077487  0.82069458    -0.54000
C88         C  0.50015280  0.83747186  0.80269054     0.78600
O89         O  0.04951328  0.74950792  0.70594316    -0.55100
C90         C  0.00047297  0.66294011  0.80286428     0.78600
C91         C  0.41332083  0.75022271  0.72355845     0.81000
Cd92       Cd  0.00039194  0.75000712  0.76334035     1.37500
O93         O  0.50003882  0.79962739  0.82051330    -0.54000
O94         O  0.41527173  0.74991513  0.75950711    -0.52800
C95         C  0.08738916  0.75019804  0.72370825     0.81000
O96         O  0.45118738  0.75061895  0.70577073    -0.55200
O97         O  0.50034418  0.83547833  0.76674385    -0.53600
O98         O  0.00083782  0.66495369  0.76691977    -0.53600
O99         O  0.08545998  0.75081820  0.75965547    -0.52800
O100        O  0.24825701  0.95118067  0.32045221    -0.54000
C101        C  0.25025788  0.58739985  0.30271997     0.78600
O102        O  0.29947998  0.49655317  0.20564836    -0.55100
C103        C  0.25029697  0.91330996  0.30275407     0.78600
C104        C  0.16331081  0.50042729  0.22336508     0.81000
Cd105      Cd  0.25016720  0.00025023  0.26301582     1.37500
O106        O  0.25369477  0.54957277  0.32033566    -0.54000
O107        O  0.16515025  0.99778774  0.25935276    -0.52800
C108        C  0.33713628  0.00027987  0.22336405     0.81000
O109        O  0.20095666  0.00233179  0.20568962    -0.55200
O110        O  0.24684893  0.58544904  0.26688084    -0.54000
O111        O  0.25227646  0.91522677  0.26684067    -0.53600
O112        O  0.33526261  0.50452101  0.25905055    -0.52800
C113        C  0.00021725  0.50016276  0.10845124     0.84100
N114        N  0.04075412  0.50020086  0.12777175    -0.74200
C115        C  0.04079225  0.50030451  0.16643162     0.86500
N116        N  0.00025985  0.50036999  0.18578721    -0.74200
C117        C  0.45975097  0.50034617  0.16626086     0.86600
N118        N  0.45980702  0.50033845  0.12760094    -0.75900
C119        C  0.25029861  0.75032324  0.41785612     0.84100
N120        N  0.25026228  0.70980204  0.39850947    -0.74200
C121        C  0.25027245  0.70979750  0.35984824     0.86500
N122        N  0.25031798  0.75034832  0.34051729    -0.74200
C123        C  0.25035439  0.79088602  0.35986139     0.86600
N124        N  0.25034367  0.79085873  0.39852352    -0.75900
C125        C  0.41666694  0.00019996  0.18671569    -0.09400
C126        C  0.38043483  0.00026016  0.20356597    -0.11000
C127        C  0.08372035  0.50034421  0.18679972    -0.09400
C128        C  0.11998155  0.50038109  0.20360966    -0.11000
C129        C  0.25035391  0.87002953  0.32259503    -0.09400
C130        C  0.25037230  0.83380694  0.33946809    -0.11000
C131        C  0.25024221  0.66688954  0.33944391    -0.09400
C132        C  0.25023596  0.63067115  0.32256803    -0.11000
C133        C  0.25028132  0.75030662  0.45874891    -0.14700
C134        C  0.25026658  0.75027830  0.49309477     0.09400
C135        C  0.25025508  0.75023976  0.53331423     0.11200
C136        C  0.25025686  0.75021069  0.56766005    -0.15500
C137        C  0.16688660  0.75025158  0.68699986    -0.09400
C138        C  0.13068120  0.75025193  0.70389442    -0.11000
C139        C  0.33378266  0.75011586  0.68691520    -0.09400
C140        C  0.37001243  0.75014252  0.70377173    -0.11000
C141        C  0.00019688  0.50005380  0.06756504    -0.14700
C142        C  0.00019343  0.49997265  0.03322370     0.09400
C143        C  0.00020265  0.49989790  0.99301056     0.11200
C144        C  0.00022121  0.49986123  0.95866925    -0.15500
C145        C  0.00048115  0.61959465  0.82259593    -0.09400
C146        C  0.00045167  0.58333505  0.83940848    -0.11000
C147        C  0.50008248  0.88080423  0.82243674    -0.09400
C148        C  0.50005665  0.91704616  0.83927127    -0.11000
C149        C  0.50010847  0.00046718  0.91767799     0.84100
N150        N  0.50033998  0.45976135  0.89825235    -0.74200
C151        C  0.00027393  0.45933055  0.85978199     0.86500
N152        N  0.00035177  0.49987757  0.84044710    -0.74200
C153        C  0.00026493  0.04063414  0.85983862     0.86600
N154        N  0.50015522  0.04100318  0.89835144    -0.75900
C155        C  0.75039523  0.25018407  0.60828342     0.84100
N156        N  0.70985241  0.25034074  0.62760135    -0.74200
C157        C  0.70980469  0.25042562  0.66626335     0.86500
N158        N  0.75033423  0.25034796  0.68562281    -0.74200
C159        C  0.79089459  0.25019061  0.66630596     0.86600
N160        N  0.79090759  0.25010900  0.62764368    -0.75900
O161        O  0.49658168  0.20126471  0.82023300    -0.54000
C162        C  0.00030305  0.33690733  0.80271447     0.78600
O163        O  0.54949679  0.24716581  0.70557572    -0.55100
C164        C  0.50026753  0.16346235  0.80262053     0.78600
C165        C  0.91334751  0.25002201  0.72336751     0.81000
Cd166      Cd  0.50029455  0.25038636  0.76289135     1.37500
O167        O  0.00360289  0.29909321  0.82036686    -0.54000
O168        O  0.91538354  0.24600933  0.75915976    -0.52800
C169        C  0.58729839  0.25057333  0.72324888     0.81000
O170        O  0.95112974  0.25400689  0.70574576    -0.55200
O171        O  0.99703257  0.33492929  0.76686792    -0.53600
O172        O  0.50396718  0.16544655  0.76680278    -0.53600
O173        O  0.58527930  0.25392064  0.75908855    -0.52800
O174        O  0.75305127  0.45075264  0.32033990    -0.54000
C175        C  0.75004070  0.08686496  0.30262234     0.78600
O176        O  0.79926663  0.00151406  0.20574987    -0.55100
C177        C  0.75035204  0.41295214  0.30258783     0.78600
C178        C  0.66307661  0.99958843  0.22344761     0.81000
Cd179      Cd  0.75022110  0.50003296  0.26306735     1.37500
O180        O  0.74831178  0.04903505  0.32041341    -0.54000
O181        O  0.66521366  0.50235733  0.25929707    -0.52800
C182        C  0.83723829  0.50029691  0.22347488     0.81000
O183        O  0.70108898  0.49751828  0.20569196    -0.55200
O184        O  0.75176169  0.08485303  0.26670359    -0.54000
O185        O  0.74760097  0.41500042  0.26671423    -0.53600
O186        O  0.83509763  0.99833767  0.25946041    -0.52800
C187        C  0.50015696  0.00008763  0.10835179     0.84100
N188        N  0.54067368  0.99989348  0.12770284    -0.74200
C189        C  0.54066684  0.99979629  0.16636357     0.86500
N190        N  0.50011493  0.99990069  0.18568751    -0.74200
C191        C  0.95956271  0.99999484  0.16652879     0.86600
N192        N  0.95955523  0.00002100  0.12786810    -0.75900
C193        C  0.75035943  0.24992737  0.41758535     0.84100
N194        N  0.75025987  0.20939334  0.39825728    -0.74200
C195        C  0.75021091  0.20936520  0.35959456     0.86500
N196        N  0.75026139  0.24990291  0.34024620    -0.74200
C197        C  0.75036086  0.29045230  0.35957316     0.86600
N198        N  0.75040860  0.29044832  0.39823541    -0.75900
C199        C  0.91680180  0.50037947  0.18686792    -0.09400
C200        C  0.88055988  0.50037264  0.20370637    -0.11000
C201        C  0.58356260  0.99963434  0.18677436    -0.09400
C202        C  0.61978148  0.99956720  0.20364443    -0.11000
C203        C  0.75039116  0.36960950  0.32233243    -0.09400
C204        C  0.75039317  0.33336290  0.33916962    -0.11000
C205        C  0.75011906  0.16644434  0.33921036    -0.09400
C206        C  0.75006638  0.13019963  0.32237391    -0.11000
C207        C  0.75040272  0.24994440  0.45847893    -0.14700
C208        C  0.75042603  0.24997831  0.49282449     0.09400
C209        C  0.75043490  0.25003663  0.53304440     0.11200
C210        C  0.75042547  0.25009893  0.56739003    -0.15500
C211        C  0.66686888  0.25055602  0.68663367    -0.09400
C212        C  0.63061663  0.25060548  0.70346414    -0.11000
C213        C  0.83379904  0.25011167  0.68672091    -0.09400
C214        C  0.87003452  0.25005853  0.70357508    -0.11000
C215        C  0.50017475  0.00019992  0.06746449    -0.14700
C216        C  0.50016900  0.00029345  0.03312217     0.09400
C217        C  0.50014651  0.00038816  0.99290787     0.11200
C218        C  0.50012479  0.00044320  0.95856585    -0.15500
C219        C  0.50024680  0.12018087  0.82244827    -0.09400
C220        C  0.50021166  0.08395220  0.83930641    -0.11000
C221        C  0.00027302  0.38019405  0.82253087    -0.09400
C222        C  0.00026252  0.41642265  0.83938710    -0.11000
C223        C  0.50039970  0.50026445  0.91762114     0.84100
N224        N  0.50006660  0.95994916  0.89833084    -0.74200
C225        C  0.00017370  0.95954953  0.85985307     0.86500
N226        N  0.00024739  0.00008781  0.84050717    -0.74200
C227        C  0.00038285  0.54041507  0.85978960     0.86600
N228        N  0.50044832  0.54081491  0.89831580    -0.75900
C229        C  0.75045549  0.75003828  0.60864269     0.84100
N230        N  0.70991520  0.75020563  0.62796416    -0.74200
C231        C  0.70987464  0.75024995  0.66662659     0.86500
N232        N  0.75040286  0.75012306  0.68598102    -0.74200
C233        C  0.79095740  0.74995416  0.66666311     0.86600
N234        N  0.79097044  0.74991431  0.62799989    -0.75900
O235        O  0.50057198  0.70124611  0.82053898    -0.54000
C236        C  0.00027073  0.83704765  0.80289974     0.78600
O237        O  0.54954005  0.75017590  0.70580541    -0.55100
C238        C  0.50044524  0.66339539  0.80272804     0.78600
C239        C  0.91336898  0.74984498  0.72375694     0.81000
Cd240      Cd  0.50033361  0.75042105  0.76315919     1.37500
O241        O  0.00075662  0.79920070  0.82071402    -0.54000
O242        O  0.91532374  0.74922529  0.75970315    -0.52800
C243        C  0.58738942  0.75050718  0.72361650     0.81000
O244        O  0.95123189  0.75052104  0.70597041    -0.55200
O245        O  0.99984474  0.83505904  0.76695467    -0.53600
O246        O  0.50027762  0.66537526  0.76678104    -0.53600
O247        O  0.58540368  0.75082698  0.75956377    -0.52800
O248        O  0.75167644  0.95072197  0.32051835    -0.54000
C249        C  0.75009138  0.58695801  0.30281456     0.78600
O250        O  0.79942049  0.50278357  0.20573816    -0.55100
C251        C  0.75012310  0.91283792  0.30279902     0.78600
C252        C  0.66324899  0.49992426  0.22340512     0.81000
Cd253      Cd  0.75005967  0.99979626  0.26309414     1.37500
O254        O  0.74730434  0.54909294  0.32046697    -0.54000
O255        O  0.66502369  0.00129986  0.25936861    -0.52800
C256        C  0.83709881  0.99995600  0.22353822     0.81000
O257        O  0.70093506  0.99793562  0.20570316    -0.55200
O258        O  0.75291896  0.58504386  0.26694023    -0.54000
O259        O  0.74853450  0.91474529  0.26687177    -0.53600
O260        O  0.83523000  0.49771310  0.25935830    -0.52800
C261        C  0.50035382  0.50020648  0.10829202     0.84100
N262        N  0.54086077  0.50008147  0.12765713    -0.74200
C263        C  0.54083553  0.50008593  0.16631756     0.86500
N264        N  0.50027266  0.50021892  0.18562803    -0.74200
C265        C  0.95970666  0.50033442  0.16646395     0.86600
N266        N  0.95970052  0.50022885  0.12780361    -0.75900
C267        C  0.75031684  0.74990608  0.41794132     0.84100
N268        N  0.75024464  0.70937384  0.39860800    -0.74200
C269        C  0.75015824  0.70935353  0.35994527     0.86500
N270        N  0.75014500  0.74989317  0.34060320    -0.74200
C271        C  0.75021684  0.79044037  0.35993300     0.86600
N272        N  0.75030205  0.79043085  0.39859571    -0.75900
C273        C  0.91666334  0.00001127  0.18693704    -0.09400
C274        C  0.88042610  0.00000343  0.20378108    -0.11000
C275        C  0.58372741  0.49997455  0.18673823    -0.09400
C276        C  0.61995150  0.49992271  0.20360202    -0.11000
C277        C  0.75016065  0.86955834  0.32263610    -0.09400
C278        C  0.75019069  0.83334618  0.33952452    -0.11000
C279        C  0.75009390  0.66643980  0.33954902    -0.09400
C280        C  0.75007033  0.63022751  0.32266514    -0.11000
C281        C  0.75039321  0.74991357  0.45883567    -0.14700
C282        C  0.75043996  0.74993074  0.49318171     0.09400
C283        C  0.75047268  0.74996179  0.53340238     0.11200
C284        C  0.75047889  0.74999474  0.56774830    -0.15500
C285        C  0.66695327  0.75040550  0.68700729    -0.09400
C286        C  0.63071632  0.75048788  0.70385468    -0.11000
C287        C  0.83385009  0.74984932  0.68708448    -0.09400
C288        C  0.87006217  0.74981269  0.70396658    -0.11000
C289        C  0.50039340  0.50019750  0.06740533    -0.14700
C290        C  0.50040883  0.50019322  0.03306327     0.09400
C291        C  0.50041256  0.50019846  0.99284977     0.11200
C292        C  0.50040901  0.50021834  0.95850773    -0.15500
C293        C  0.50047597  0.62006775  0.82248362    -0.09400
C294        C  0.50047233  0.58381234  0.83929996    -0.11000
C295        C  0.00021129  0.88037963  0.82264984    -0.09400
C296        C  0.00018062  0.91663065  0.83947218    -0.11000
loop_ 
_geom_bond_atom_site_label_1 
_geom_bond_atom_site_label_2 
_geom_bond_distance 
_geom_bond_site_symmetry_2 
_ccdc_geom_bond_type 
C1            N6   1.357       .  A
C1           N76   1.357   1_545  A
C1           C70   1.435       .  S
N2           C75   1.357       .  A
N2          C151   1.357       .  A
C3            N4   1.357       .  A
C3          N150   1.357       .  A
C3           C74   1.435       .  S
N4           C79   1.357       .  A
C5           N78   1.357       .  A
C5          N154   1.357       .  A
C5          C220   1.435       .  S
N6          C153   1.357       .  A
C7            N8   1.357       .  A
C7           N12   1.357       .  A
C7           C62   1.435       .  S
N8            C9   1.357       .  A
C9           N10   1.357       .  A
C9           C63   1.436       .  S
N10          C11   1.357       .  A
C11          N12   1.357       .  A
C11          C65   1.436       .  S
O13          C16   1.263   1_655  A
O13         Cd18   2.468   1_655  S
C14          C73   1.435       .  S
C14          O23   1.263       .  A
C14          O19   1.263       .  A
O15          C21   1.263       .  A
O15         Cd18   2.468       .  S
C16          C71   1.435       .  S
C16          O24   1.263       .  A
C17          C66   1.435       .  S
C17          O22   1.263       .  A
C17          O20   1.263       .  A
Cd18         O25   2.470       .  S
Cd18         O24   2.469       .  S
Cd18        O171   2.469   1_455  S
Cd18        O167   2.468       .  S
Cd18        O170   2.468   1_455  S
Cd18        O168   2.470   1_455  S
O19        Cd166   2.468       .  S
O20        Cd166   2.469       .  S
C21          C64   1.435       .  S
C21          O25   1.263       .  A
O22        Cd166   2.468       .  S
O23        Cd166   2.469       .  S
O26          C29   1.263       .  A
O26         Cd31   2.468       .  S
C27          C58   1.435       .  S
C27          O36   1.263       .  A
C27          O32   1.263       .  A
O28         C108   1.263   1_565  A
O28        Cd105   2.468   1_565  S
C29          C55   1.435       .  S
C29          O37   1.263       .  A
C30          C54   1.435   1_545  S
C30         O109   1.263       .  A
C30         O107   1.263   1_545  A
Cd31         O37   2.469       .  S
Cd31         O35   2.468       .  S
Cd31         O33   2.469       .  S
Cd31        O102   2.468       .  S
Cd31        O112   2.469       .  S
Cd31        O110   2.469       .  S
Cd31        O106   2.468       .  S
O32        Cd105   2.468       .  S
O33         C104   1.263       .  A
C34          C52   1.435       .  S
C34         O102   1.263       .  A
C34         O112   1.263       .  A
O35         C104   1.263       .  A
O36        Cd105   2.470       .  S
O38         C108   1.263       .  A
O38        Cd105   2.469       .  S
C39          N40   1.357   1_545  A
C39         N192   1.357   1_455  A
C39          C67   1.435       .  S
N40          C41   1.357       .  A
C41          N42   1.357       .  A
C41          C53   1.435       .  S
N42         C191   1.357   1_455  A
C43          N44   1.357       .  A
C43         N190   1.357   1_545  A
C43         C125   1.435       .  S
N44         C187   1.357       .  A
C45          N46   1.357       .  A
C45          N50   1.357       .  A
C45          C59   1.435       .  S
N46          C47   1.357       .  A
C47          N48   1.357       .  A
C47          C57   1.436       .  S
N48          C49   1.357       .  A
C49          N50   1.357       .  A
C49          C56   1.436       .  S
C51         C117   1.435       .  S
C51          C52   1.206       .  T
C53          C54   1.206       .  T
C55          C56   1.206       .  T
C57          C58   1.206       .  T
C59          C60   1.206       .  T
C60          C61   1.412       .  S
C61          C62   1.206       .  T
C63          C64   1.206       .  T
C65          C66   1.206       .  T
C67          C68   1.205       .  T
C68          C69   1.412   1_554  S
C69          C70   1.205       .  T
C71          C72   1.206       .  T
C72         C153   1.435       .  S
C73          C74   1.206       .  T
C75          N80   1.357       .  A
C75         C144   1.435       .  S
N76         C225   1.357       .  A
C77         N224   1.357       .  A
C77          N78   1.357   1_565  A
C77         C148   1.435       .  S
C79         N228   1.357       .  A
C79         C294   1.435       .  S
N80         C227   1.357       .  A
C81          N82   1.357       .  A
C81          N86   1.357       .  A
C81         C136   1.435       .  S
N82          C83   1.357       .  A
C83          N84   1.357       .  A
C83         C137   1.435       .  S
N84          C85   1.357       .  A
C85          N86   1.357       .  A
C85         C139   1.435       .  S
O87          C90   1.263       .  A
O87         Cd92   2.468       .  S
C88         C147   1.435       .  S
C88          O97   1.263       .  A
C88          O93   1.263       .  A
O89          C95   1.263       .  A
O89         Cd92   2.467       .  S
C90         C145   1.435       .  S
C90          O98   1.263       .  A
C91         C140   1.435       .  S
C91          O96   1.263       .  A
C91          O94   1.263       .  A
Cd92         O99   2.470       .  S
Cd92         O98   2.469       .  S
Cd92        O245   2.469   1_455  S
Cd92        O241   2.468       .  S
Cd92        O244   2.467   1_455  S
Cd92        O242   2.470   1_455  S
O93        Cd240   2.468       .  S
O94        Cd240   2.470       .  S
C95         C138   1.435       .  S
C95          O99   1.263       .  A
O96        Cd240   2.467       .  S
O97        Cd240   2.469       .  S
O100        C103   1.263       .  A
O100       Cd105   2.468   1_565  S
C101        C132   1.435       .  S
C101        O110   1.263       .  A
C101        O106   1.263       .  A
C103        C129   1.435       .  S
C103        O111   1.263       .  A
C104        C128   1.435       .  S
Cd105       O111   2.470   1_545  S
Cd105       O109   2.468       .  S
Cd105       O107   2.469   1_545  S
C108        C126   1.435       .  S
C113        N114   1.357       .  A
C113        N266   1.357   1_455  A
C113        C141   1.435       .  S
N114        C115   1.357       .  A
C115        N116   1.357       .  A
C115        C127   1.435       .  S
N116        C265   1.357   1_455  A
C117        N264   1.357       .  A
C117        N118   1.357       .  A
N118        C261   1.357       .  A
C119        N120   1.357       .  A
C119        N124   1.357       .  A
C119        C133   1.435       .  S
N120        C121   1.357       .  A
C121        N122   1.357       .  A
C121        C131   1.436       .  S
N122        C123   1.357       .  A
C123        N124   1.357       .  A
C123        C130   1.436       .  S
C125        C126   1.206       .  T
C127        C128   1.206       .  T
C129        C130   1.206       .  T
C131        C132   1.206       .  T
C133        C134   1.206       .  T
C134        C135   1.412       .  S
C135        C136   1.206       .  T
C137        C138   1.206       .  T
C139        C140   1.206       .  T
C141        C142   1.205       .  T
C142        C143   1.412   1_554  S
C143        C144   1.205       .  T
C145        C146   1.206       .  T
C146        C227   1.435       .  S
C147        C148   1.206       .  T
C149        N224   1.357   1_545  A
C149        N154   1.357       .  A
C149        C218   1.435       .  S
N150        C223   1.357       .  A
C151        N152   1.357       .  A
C151        C222   1.435       .  S
N152        C227   1.357       .  A
C153        N226   1.357       .  A
C155        N156   1.357       .  A
C155        N160   1.357       .  A
C155        C210   1.435       .  S
N156        C157   1.357       .  A
C157        N158   1.357       .  A
C157        C211   1.436       .  S
N158        C159   1.357       .  A
C159        N160   1.357       .  A
C159        C213   1.436       .  S
O161        C164   1.263       .  A
O161       Cd166   2.468       .  S
C162        C221   1.435       .  S
C162        O171   1.263   1_455  A
C162        O167   1.263       .  A
O163        C169   1.263       .  A
O163       Cd166   2.468       .  S
C164        C219   1.435       .  S
C164        O172   1.263       .  A
C165        C214   1.435       .  S
C165        O170   1.263       .  A
C165        O168   1.263       .  A
Cd166       O173   2.470       .  S
Cd166       O172   2.469       .  S
C169        C212   1.435       .  S
C169        O173   1.263       .  A
O174        C177   1.263       .  A
O174       Cd179   2.468       .  S
C175        C206   1.435       .  S
C175        O184   1.263       .  A
C175        O180   1.263       .  A
O176        C256   1.263   1_545  A
O176       Cd253   2.468   1_545  S
C177        C203   1.435       .  S
C177        O185   1.263       .  A
C178        C202   1.435       .  S
C178        O257   1.263       .  A
C178        O255   1.263   1_565  A
Cd179       O250   2.468       .  S
Cd179       O260   2.469       .  S
Cd179       O185   2.470       .  S
Cd179       O258   2.470       .  S
Cd179       O254   2.468       .  S
Cd179       O183   2.468       .  S
Cd179       O181   2.469       .  S
O180       Cd253   2.468   1_545  S
O181        C252   1.263       .  A
C182        C200   1.435       .  S
C182        O250   1.263       .  A
C182        O260   1.263       .  A
O183        C252   1.263       .  A
O184       Cd253   2.470   1_545  S
O186        C256   1.263       .  A
O186       Cd253   2.469       .  S
C187        N188   1.357   1_545  A
C187        C215   1.435       .  S
N188        C189   1.357       .  A
C189        N190   1.357       .  A
C189        C201   1.435       .  S
C191        N192   1.357   1_565  A
C191        C273   1.435   1_565  S
C193        N194   1.357       .  A
C193        N198   1.357       .  A
C193        C207   1.435       .  S
N194        C195   1.357       .  A
C195        N196   1.357       .  A
C195        C205   1.435       .  S
N196        C197   1.357       .  A
C197        N198   1.357       .  A
C197        C204   1.436       .  S
C199        C265   1.435       .  S
C199        C200   1.206       .  T
C201        C202   1.206       .  T
C203        C204   1.206       .  T
C205        C206   1.206       .  T
C207        C208   1.206       .  T
C208        C209   1.412       .  S
C209        C210   1.206       .  T
C211        C212   1.206       .  T
C213        C214   1.206       .  T
C215        C216   1.205       .  T
C216        C217   1.412   1_554  S
C217        C218   1.205       .  T
C219        C220   1.206       .  T
C221        C222   1.206       .  T
C223        N228   1.357       .  A
C223        C292   1.435       .  S
C225        N226   1.357   1_565  A
C225        C296   1.435       .  S
C229        N230   1.357       .  A
C229        N234   1.357       .  A
C229        C284   1.435       .  S
N230        C231   1.357       .  A
C231        N232   1.357       .  A
C231        C285   1.435       .  S
N232        C233   1.357       .  A
C233        N234   1.357       .  A
C233        C287   1.435       .  S
O235        C238   1.263       .  A
O235       Cd240   2.468       .  S
C236        C295   1.435       .  S
C236        O245   1.263   1_455  A
C236        O241   1.263       .  A
O237        C243   1.263       .  A
O237       Cd240   2.467       .  S
C238        C293   1.435       .  S
C238        O246   1.263       .  A
C239        C288   1.435       .  S
C239        O244   1.263       .  A
C239        O242   1.263       .  A
Cd240       O247   2.470       .  S
Cd240       O246   2.469       .  S
C243        C286   1.435       .  S
C243        O247   1.263       .  A
O248        C251   1.263       .  A
O248       Cd253   2.468       .  S
C249        C280   1.435       .  S
C249        O258   1.263       .  A
C249        O254   1.263       .  A
C251        C277   1.435       .  S
C251        O259   1.263       .  A
C252        C276   1.435       .  S
Cd253       O259   2.470       .  S
Cd253       O257   2.468       .  S
Cd253       O255   2.469   1_565  S
C256        C274   1.435   1_565  S
C261        N262   1.357       .  A
C261        C289   1.435       .  S
N262        C263   1.357       .  A
C263        N264   1.357       .  A
C263        C275   1.435       .  S
C265        N266   1.357       .  A
C267        N268   1.357       .  A
C267        N272   1.357       .  A
C267        C281   1.435       .  S
N268        C269   1.357       .  A
C269        N270   1.357       .  A
C269        C279   1.436       .  S
N270        C271   1.357       .  A
C271        N272   1.357       .  A
C271        C278   1.435       .  S
C273        C274   1.206       .  T
C275        C276   1.206       .  T
C277        C278   1.206       .  T
C279        C280   1.206       .  T
C281        C282   1.206       .  T
C282        C283   1.412       .  S
C283        C284   1.206       .  T
C285        C286   1.206       .  T
C287        C288   1.206       .  T
C289        C290   1.205       .  T
C290        C291   1.412   1_554  S
C291        C292   1.205       .  T
C293        C294   1.206       .  T
C295        C296   1.206       .  T
