geometry optimzed in LAMMPS
_audit_creation_date              2020-12-01 
_audit_creation_method            'lammps2cif' 
_symmetry_space_group_name_H-M    'P1' 
_symmetry_Int_Tables_number       1 
_symmetry_cell_setting            triclinic 
loop_ 
_symmetry_equiv_pos_as_xyz 
  x,y,z 
_cell_length_a                    25.37483978 
_cell_length_b                    26.01723738989664 
_cell_length_c                    28.15236311375864 
_cell_angle_alpha                 89.92462414648081 
_cell_angle_beta                  89.57781847153261 
_cell_angle_gamma                 90.91119267382908 
loop_ 
_atom_site_label 
_atom_site_type_symbol 
_atom_site_fract_x 
_atom_site_fract_y 
_atom_site_fract_z 
_atom_site_charge 
O1          O  0.07872059  0.00371854  0.92145993    -0.79700
O2          O  0.92662753  0.97352214  0.93728528    -0.79800
O3          O  0.01813418  0.89971878  0.95384690    -0.79800
O4          O  0.95366159  0.11350735  0.97824389    -0.79700
O5          O  0.93660662  0.87615943  0.97316982    -0.79800
O6          O  0.00374374  0.07935625  0.92318710    -0.79800
O7          O  0.88735648  0.03018994  0.98367288    -0.79700
O8          O  0.11077449  0.95321284  0.97400145    -0.79800
C9          C  0.11504218  0.97407561  0.93369873     1.10000
C10         C  0.88897769  0.00377570  0.94552129     1.09800
C11         C  0.97861184  0.86749978  0.95019963     1.10000
C12         C  0.97262765  0.11423734  0.93613218     1.09900
O13         O  0.04663639  0.11832055  0.01110178    -0.79700
O14         O  0.98909837  0.90127672  0.05215810    -0.79800
O15         O  0.07670223  0.98462011  0.06457290    -0.79800
O16         O  0.93073222  0.00571867  0.07779890    -0.79700
O17         O  0.89506904  0.94848267  0.03219707    -0.79800
O18         O  0.11545506  0.03970496  0.01504147    -0.79700
O19         O  0.99836397  0.08686601  0.06941773    -0.79700
O20         O  0.07148364  0.88361459  0.03429287    -0.79800
Co21       Co  0.05741722  0.05650688  0.96851009     1.51500
Co22       Co  0.96125753  0.94173963  0.99242230     1.51700
Co23       Co  0.04402408  0.94588157  0.01153262     1.51600
Co24       Co  0.94599923  0.05571155  0.02667474     1.51500
O25         O  0.00201155  0.00893130  0.99910358    -1.41700
C26         C  0.02890321  0.12153850  0.05337232     1.09900
C27         C  0.02962912  0.87184448  0.05647625     1.10000
C28         C  0.11356029  0.01693362  0.05536451     1.09900
C29         C  0.89328923  0.97488709  0.06988623     1.09900
C30         C  0.02708654  0.54004733  0.24686929     0.80600
N31         N  0.02939761  0.49472678  0.22296809    -0.77700
C32         C  0.02711793  0.44939763  0.24702974     0.83100
N33         N  0.02230355  0.44949049  0.29514924    -0.77600
C34         C  0.01974708  0.49458135  0.31951630     0.83200
N35         N  0.02213676  0.53974967  0.29500287    -0.79300
C36         C  0.96913938  0.45142546  0.75282240     0.80600
N37         N  0.97635965  0.45100152  0.70481311    -0.77700
C38         C  0.98242127  0.49555078  0.67982310     0.83100
N39         N  0.98246439  0.54118709  0.70334840    -0.77600
C40         C  0.97599544  0.54224984  0.75124750     0.83200
N41         N  0.96889968  0.49754689  0.77563774    -0.79300
C42         C  0.45241437  0.02679863  0.24722624     0.80600
N43         N  0.45306521  0.02815630  0.29545333    -0.77700
C44         C  0.49764184  0.01942508  0.32022451     0.83100
N45         N  0.54293597  0.00969994  0.29636189    -0.77600
C46         C  0.54427014  0.00929200  0.24820844     0.83200
N47         N  0.49876544  0.01736094  0.22386563    -0.79300
C48         C  0.46351410  0.00576776  0.75592923     0.80600
N49         N  0.51101636  0.00736576  0.77795737    -0.77700
C50         C  0.55614627  0.01128173  0.75174872     0.83100
N51         N  0.55342319  0.01333874  0.70361088    -0.77600
C52         C  0.50613069  0.01305074  0.68112479     0.83200
N53         N  0.46142601  0.00910253  0.70784344    -0.79300
C54         C  0.47941812  0.06414028  0.44818533    -0.05100
C55         C  0.49917092  0.02191365  0.47354954     0.09100
C56         C  0.51731938  0.97854551  0.44866425    -0.02400
C57         C  0.51599048  0.97744920  0.39861547    -0.00700
C58         C  0.49703282  0.02003748  0.37299284    -0.04300
C59         C  0.47834899  0.06329610  0.39805138     0.02700
C60         C  0.49980086  0.02232189  0.52671805     0.09500
C61         C  0.53719081  0.93490507  0.47475437     0.35400
C62         C  0.45924524  0.10751915  0.37233654     0.38900
C63         C  0.45693406  0.00131563  0.55247981    -0.04700
C64         C  0.45919097  0.99697714  0.60242669     0.02500
C65         C  0.50346332  0.01697635  0.62772884    -0.04300
C66         C  0.54500312  0.04125709  0.60126644    -0.00500
C67         C  0.54364014  0.04253801  0.55111853    -0.03100
C68         C  0.40993908  0.98475760  0.52725934     0.36200
C69         C  0.58869039  0.06689577  0.62498320     0.39800
C70         C  0.41611664  0.97042820  0.62671913     0.38900
C71         C  0.58727535  0.06514256  0.52436039     0.35800
C72         C  0.46024838  0.10842888  0.47390190     0.36500
C73         C  0.53226813  0.93157943  0.37355096     0.39800
N74         N  0.38133788  0.94913735  0.64548683    -0.38300
N75         N  0.37230933  0.97234172  0.50703615    -0.39900
N76         N  0.62350888  0.08755592  0.64369007    -0.37600
N77         N  0.62209330  0.08316588  0.50299051    -0.40000
N78         N  0.55306139  0.90012333  0.49559917    -0.39800
N79         N  0.54494999  0.89495844  0.35348205    -0.38500
N80         N  0.44392762  0.14281273  0.35186776    -0.38500
N81         N  0.44497189  0.14364921  0.49460709    -0.40100
C82         C  0.96031146  0.52461642  0.54847413    -0.05100
C83         C  0.99895707  0.49418454  0.52652094     0.09100
C84         C  0.03180128  0.46354609  0.55476062    -0.02400
C85         C  0.02638841  0.46369751  0.60479222    -0.00700
C86         C  0.98790559  0.49454857  0.62699199    -0.04300
C87         C  0.95448515  0.52453999  0.59840189     0.02700
C88         C  0.00452590  0.49405111  0.47341866     0.09500
C89         C  0.07127698  0.43192807  0.53214408     0.35400
C90         C  0.91238202  0.55363666  0.62006852     0.38900
C91         C  0.03706158  0.53090939  0.45048595    -0.04700
C92         C  0.04319593  0.53024922  0.40058807     0.02500
C93         C  0.01429193  0.49444970  0.37261415    -0.04300
C94         C  0.98002033  0.45870218  0.39592168    -0.00500
C95         C  0.97625249  0.45780486  0.44604973    -0.03100
C96         C  0.06367653  0.57022058  0.47836309     0.36200
C97         C  0.94651496  0.42418373  0.36869259     0.39800
C98         C  0.08096532  0.56548104  0.37876101     0.38900
C99         C  0.94265237  0.41996854  0.46974685     0.35800
C100        C  0.92631403  0.55579545  0.51938250     0.36500
C101        C  0.06129179  0.43294905  0.63335566     0.39800
N102        N  0.11159159  0.59385415  0.36235233    -0.38300
N103        N  0.08441537  0.60201679  0.50039959    -0.39900
N104        N  0.91924484  0.39665962  0.34752721    -0.37600
N105        N  0.91605922  0.38977934  0.48890649    -0.40000
N106        N  0.10267687  0.40668969  0.51396682    -0.39800
N107        N  0.08912437  0.40832585  0.65614019    -0.37400
N108        N  0.87850924  0.57661532  0.63716365    -0.38500
N109        N  0.89939975  0.58062295  0.49591870    -0.40100
C110        C  0.91353656  0.23736636  0.88453787    -0.05100
C111        C  0.95428552  0.25448022  0.85376396     0.09100
C112        C  0.99811291  0.22297628  0.84602165    -0.02400
C113        C  0.00326643  0.17641014  0.87127999    -0.00700
C114        C  0.96351737  0.15972810  0.90408565    -0.04300
C115        C  0.91757568  0.18988293  0.90891689     0.02700
C116        C  0.95242269  0.30626128  0.82996545     0.09500
C117        C  0.03887241  0.23936138  0.81255636     0.35400
C118        C  0.87377954  0.17191282  0.93824836     0.38900
C119        C  0.97439027  0.34989390  0.85246861    -0.04700
C120        C  0.97957347  0.39718629  0.82782739     0.02500
C121        C  0.96181422  0.40178769  0.78016362    -0.04300
C122        C  0.93717416  0.35814232  0.75875550    -0.00500
C123        C  0.93298960  0.31082624  0.78346142    -0.03100
C124        C  0.99234036  0.34580762  0.90111344     0.36200
C125        C  0.91490674  0.36153371  0.71157620     0.39800
C126        C  0.00513201  0.44021180  0.85165006     0.38900
C127        C  0.90881591  0.26631246  0.76092024     0.35800
C128        C  0.86766674  0.26910675  0.89139177     0.36500
C129        C  0.05159439  0.14803276  0.86525442     0.39800
N130        N  0.02537048  0.47436386  0.87094657    -0.38300
N131        N  0.00636356  0.34279174  0.94002614    -0.39900
N132        N  0.89717867  0.36406308  0.67387730    -0.37600
N133        N  0.88947692  0.23076081  0.74310453    -0.40000
N134        N  0.07118354  0.25235225  0.78572453    -0.39800
N135        N  0.09053408  0.12601797  0.86042054    -0.37400
N136        N  0.83861273  0.15758102  0.96136159    -0.38500
N137        N  0.83115865  0.29460189  0.89682530    -0.40100
C138        C  0.00129779  0.77885406  0.84356419    -0.05100
C139        C  0.98306169  0.73111687  0.86170449     0.09100
C140        C  0.96495902  0.72799442  0.90911444    -0.02400
C141        C  0.96312544  0.77252933  0.93762540    -0.00700
C142        C  0.98156809  0.82059497  0.91967911    -0.04300
C143        C  0.00177667  0.82314708  0.87273774     0.02700
C144        C  0.98187231  0.68396851  0.83088902     0.09500
C145        C  0.94828587  0.67860884  0.92853022     0.35400
C146        C  0.02137339  0.87159997  0.85375093     0.38900
C147        C  0.02836746  0.65616753  0.82238884    -0.04700
C148        C  0.02658311  0.61047807  0.79530601     0.02500
C149        C  0.97819526  0.59184757  0.77719816    -0.04300
C150        C  0.93179636  0.61975872  0.78533496    -0.00500
C151        C  0.93362651  0.66571016  0.81200850    -0.03100
C152        C  0.07771506  0.67378903  0.84282888     0.36200
C153        C  0.88202577  0.60073756  0.76681236     0.39800
C154        C  0.07447210  0.58224724  0.78636569     0.38900
C155        C  0.88567186  0.69381219  0.82093084     0.35800
C156        C  0.01809262  0.78258717  0.79430480     0.36500
C157        C  0.94317000  0.76822497  0.98598008     0.39800
N158        N  0.11259781  0.55966219  0.77903832    -0.38300
N159        N  0.11700469  0.68782214  0.85934557    -0.39900
N160        N  0.84228432  0.58550942  0.75209599    -0.37600
N161        N  0.84746251  0.71621655  0.82841254    -0.40000
N162        N  0.93512090  0.63909245  0.94383719    -0.39800
N163        N  0.92706478  0.76448943  0.02439707    -0.37400
N164        N  0.03722186  0.91019898  0.83848422    -0.38500
N165        N  0.03108141  0.78549490  0.75490980    -0.40100
C166        C  0.04351758  0.20945899  0.16144384    -0.05100
C167        C  0.04118983  0.25854062  0.14026187     0.09100
C168        C  0.04112027  0.26275828  0.09035922    -0.02400
C169        C  0.04031109  0.21824203  0.06168168    -0.00700
C170        C  0.03906791  0.16863339  0.08281928    -0.04300
C171        C  0.04310299  0.16475169  0.13289424     0.02700
C172        C  0.03794212  0.30616210  0.17020272     0.09500
C173        C  0.04072323  0.31335828  0.06856803     0.35400
C174        C  0.04857027  0.11473894  0.15510162     0.38900
C175        C  0.08384781  0.33541803  0.18023419    -0.04700
C176        C  0.08024241  0.38217286  0.20546910     0.02500
C177        C  0.03072089  0.39994941  0.22093603    -0.04300
C178        C  0.98481211  0.37055792  0.21119320    -0.00500
C179        C  0.98840986  0.32383482  0.18587398    -0.03100
C180        C  0.13470187  0.31761914  0.16391854     0.36200
C181        C  0.93369266  0.38916265  0.22597383     0.39800
C182        C  0.12748283  0.41214548  0.21555487     0.38900
C183        C  0.94104731  0.29440891  0.17488388     0.35800
C184        C  0.04578606  0.20506007  0.21271123     0.36500
C185        C  0.03969578  0.22421617  0.01052366     0.39800
N186        N  0.16506088  0.43626052  0.22371246    -0.38300
N187        N  0.17519980  0.30332004  0.15072485    -0.39900
N188        N  0.89281142  0.40403663  0.23751260    -0.37600
N189        N  0.90332683  0.27086158  0.16595503    -0.40000
N190        N  0.04050146  0.35384191  0.05154421    -0.39800
N191        N  0.03996701  0.22966650  0.96971621    -0.37400
N192        N  0.05335072  0.07483763  0.17257707    -0.38500
N193        N  0.04753168  0.20149096  0.25365632    -0.40100
C194        C  0.06848126  0.67205096  0.19882717    -0.05100
C195        C  0.02473466  0.68441828  0.17058210     0.09100
C196        C  0.98213742  0.64909123  0.16706463    -0.02400
C197        C  0.98269675  0.60233280  0.19261807    -0.00700
C198        C  0.02678211  0.58954829  0.22034467    -0.04300
C199        C  0.07015458  0.62422632  0.22260805     0.02700
C200        C  0.02538009  0.73291351  0.14162099     0.09500
C201        C  0.93831237  0.66048945  0.13626246     0.35400
C202        C  0.11787465  0.60945388  0.24666367     0.38900
C203        C  0.04849105  0.73300617  0.09596676    -0.04700
C204        C  0.04968836  0.77827258  0.06834513     0.02500
C205        C  0.02782800  0.82433365  0.08628392    -0.04300
C206        C  0.00474814  0.82414914  0.13213655    -0.00500
C207        C  0.00346820  0.77855918  0.15964045    -0.03100
C208        C  0.07099882  0.68609484  0.07737176     0.36200
C209        C  0.98423260  0.87133106  0.15184848     0.39800
C210        C  0.07179879  0.77653610  0.02064949     0.38900
C211        C  0.98011233  0.77857029  0.20675592     0.35800
C212        C  0.11213464  0.70848544  0.20275077     0.36500
C213        C  0.93762847  0.56738900  0.19071407     0.39800
N214        N  0.08929606  0.77481603  0.98259670    -0.38300
N215        N  0.08894152  0.64865240  0.06275682    -0.39900
N216        N  0.96802410  0.90906745  0.16747595    -0.37600
N217        N  0.96150793  0.77852614  0.24441064    -0.40000
N218        N  0.90356686  0.66948020  0.11132702    -0.39800
N219        N  0.90176045  0.53943769  0.18951977    -0.37400
N220        N  0.15672354  0.59778703  0.26475587    -0.38500
N221        N  0.14664004  0.73783504  0.20590747    -0.40100
C222        C  0.69327787  0.97334066  0.79183106    -0.05100
C223        C  0.70648340  0.01425461  0.82259056     0.09100
C224        C  0.67161692  0.05549941  0.82809466    -0.02400
C225        C  0.62226480  0.05439132  0.80528625    -0.00700
C226        C  0.60837022  0.01286700  0.77530444    -0.04300
C227        C  0.64478224  0.97312574  0.76754686     0.02700
C228        C  0.75423241  0.01110110  0.85326843     0.09500
C229        C  0.68666746  0.09898384  0.85753469     0.35400
C230        C  0.63168515  0.93104358  0.73576813     0.38900
C231        C  0.80401954  0.02884354  0.83695652    -0.04700
C232        C  0.84865479  0.02504845  0.86646191     0.02500
C233        C  0.84333564  0.00484859  0.91288266    -0.04300
C234        C  0.79350967  0.98614554  0.92864033    -0.00500
C235        C  0.74925932  0.98940532  0.89896925    -0.03100
C236        C  0.80899408  0.05154864  0.79009487     0.36200
C237        C  0.78762670  0.96111063  0.97441557     0.39800
C238        C  0.89996768  0.04182435  0.84887171     0.38900
C239        C  0.69820803  0.97015282  0.91540178     0.35800
C240        C  0.72904874  0.93080873  0.78642615     0.36500
C241        C  0.58614331  0.09628895  0.81236058     0.39800
N242        N  0.94074554  0.05475773  0.83419081    -0.38300
N243        N  0.81293157  0.06989970  0.75273065    -0.39900
N244        N  0.78105132  0.94007751  0.01026257    -0.37600
N245        N  0.65754069  0.95489180  0.92836734    -0.40000
N246        N  0.69905981  0.13374826  0.88070793    -0.39800
N247        N  0.55760836  0.12999102  0.81833409    -0.37400
N248        N  0.62136874  0.89758630  0.71028805    -0.38500
N249        N  0.75771206  0.89686793  0.78242370    -0.40100
C250        C  0.33913822  0.94091175  0.80497582    -0.05100
C251        C  0.31662837  0.98109212  0.83152781     0.09100
C252        C  0.34358254  0.02887570  0.83476933    -0.02400
C253        C  0.39183243  0.03702108  0.81035405    -0.00700
C254        C  0.41413081  0.99697287  0.78351523    -0.04300
C255        C  0.38787353  0.94873754  0.78129627     0.02700
C256        C  0.26390096  0.97375593  0.85537813     0.09500
C257        C  0.32130294  0.06978612  0.86312398     0.35400
C258        C  0.41117354  0.90706247  0.75459637     0.38900
C259        C  0.26013164  0.95026379  0.90032015    -0.04700
C260        C  0.21133097  0.94770869  0.92485082     0.02500
C261        C  0.16501458  0.96888394  0.90447793    -0.04300
C262        C  0.16875644  0.98883802  0.85740769    -0.00500
C263        C  0.21797555  0.99174611  0.83350560    -0.03100
C264        C  0.30715344  0.92958975  0.92180234     0.36200
C265        C  0.12232248  0.00595367  0.83259682     0.39800
C266        C  0.21022739  0.92406945  0.97161817     0.38900
C267        C  0.22180198  0.01392672  0.78622701     0.35800
C268        C  0.31178820  0.89172508  0.80168102     0.36500
C269        C  0.41722560  0.08728778  0.81111559     0.39800
N270        N  0.20970831  0.90513588  0.00884709    -0.38300
N271        N  0.34459322  0.91293607  0.93881644    -0.39900
N272        N  0.08565379  0.01945683  0.81209939    -0.37600
N273        N  0.22526661  0.03160819  0.74858585    -0.40000
N274        N  0.30345208  0.10224931  0.88588231    -0.39800
N275        N  0.43684009  0.12774942  0.81147596    -0.37400
N276        N  0.42989187  0.87395788  0.73325877    -0.38500
N277        N  0.28994763  0.85244380  0.79907789    -0.40100
C278        C  0.77039819  0.02842783  0.12939932    -0.05100
C279        C  0.74717534  0.98412991  0.15040767     0.09100
C280        C  0.77332664  0.93662712  0.14644336    -0.02400
C281        C  0.82071935  0.93303619  0.11975034    -0.00700
C282        C  0.84419592  0.97752808  0.09933894    -0.04300
C283        C  0.81918534  0.02546872  0.10526356     0.02700
C284        C  0.69525807  0.98810922  0.17661381     0.09500
C285        C  0.75198562  0.89167822  0.17075049     0.35400
C286        C  0.84277718  0.07205092  0.08542416     0.38900
C287        C  0.64870091  0.96588542  0.15768160    -0.04700
C288        C  0.59967216  0.97157998  0.18137295     0.02500
C289        C  0.59600179  0.00202364  0.22292021    -0.04300
C290        C  0.64274393  0.02515827  0.24117306    -0.00500
C291        C  0.69200564  0.01676871  0.21906320    -0.03100
C292        C  0.65114037  0.93795790  0.11322033     0.36200
C293        C  0.64034650  0.05969877  0.28154100     0.39800
C294        C  0.55347602  0.94450530  0.16353885     0.38900
C295        C  0.73961625  0.03840243  0.23990109     0.35800
C296        C  0.74372361  0.07731830  0.13222270     0.36500
C297        C  0.84552514  0.88364223  0.11363956     0.39800
N298        N  0.51680646  0.92264113  0.14937258    -0.38300
N299        N  0.65325806  0.91572087  0.07765511    -0.39900
N300        N  0.63836777  0.08742564  0.31365187    -0.37600
N301        N  0.77742342  0.05590111  0.25643331    -0.40000
N302        N  0.73502541  0.85594254  0.19042682    -0.39800
N303        N  0.86505512  0.84412491  0.10856700    -0.37400
N304        N  0.86155368  0.10940686  0.07007504    -0.38500
N305        N  0.72260394  0.11632151  0.13476943    -0.40100
C306        C  0.23112335  0.07826256  0.12091108    -0.05100
C307        C  0.25195230  0.03529597  0.14426605     0.09100
C308        C  0.22440339  0.98791190  0.14258485    -0.02400
C309        C  0.17655638  0.98329077  0.11755618    -0.00700
C310        C  0.15816434  0.02485328  0.08967670    -0.04300
C311        C  0.18586939  0.07276545  0.09216910     0.02700
C312        C  0.30324478  0.03928053  0.17052233     0.09500
C313        C  0.24633484  0.94316620  0.16562629     0.35400
C314        C  0.16868203  0.11691326  0.06524505     0.38900
C315        C  0.30350192  0.03896146  0.22039169    -0.04700
C316        C  0.35138087  0.03539416  0.24548253     0.02500
C317        C  0.40093857  0.03402238  0.22061534    -0.04300
C318        C  0.39992539  0.03876310  0.17008307    -0.00500
C319        C  0.35149587  0.04032180  0.14546727    -0.03100
C320        C  0.25369865  0.04213980  0.24605548     0.36200
C321        C  0.44822059  0.04290235  0.14223991     0.39800
C322        C  0.34788549  0.03216503  0.29685040     0.38900
C323        C  0.35102983  0.04240070  0.09394492     0.35800
C324        C  0.25634709  0.12825347  0.12682063     0.36500
C325        C  0.14748943  0.93502657  0.12072574     0.39800
N326        N  0.34431348  0.02954463  0.33786030    -0.38300
N327        N  0.21407485  0.04492199  0.26635095    -0.39900
N328        N  0.48620883  0.04645254  0.11948233    -0.37600
N329        N  0.35038369  0.04425327  0.05284760    -0.40000
N330        N  0.26399880  0.90742045  0.18365583    -0.39800
N331        N  0.12512830  0.89620357  0.12518882    -0.37400
N332        N  0.15656884  0.15263432  0.04364407    -0.38500
N333        N  0.27625047  0.16815909  0.13206965    -0.40100
loop_ 
_geom_bond_atom_site_label_1 
_geom_bond_atom_site_label_2 
_geom_bond_distance 
_geom_bond_site_symmetry_2 
_ccdc_geom_bond_type 
O1            C9   1.261   1_545  A
O1          Co21   1.988       .  S
O2           C10   1.268   1_565  A
O2          Co22   1.976       .  S
O3           C11   1.302   1_455  A
O3          Co23   2.123   1_556  S
O4           C12   1.276       .  A
O4          Co24   2.035   1_556  S
O5           C11   1.266       .  A
O5          Co22   1.889       .  S
O6           C12   1.265   1_455  A
O6          Co21   1.971       .  S
O7           C10   1.277       .  A
O7          Co24   2.029   1_556  S
O8            C9   1.260       .  A
O8          Co23   1.996   1_556  S
C9          C261   1.514       .  S
C10         C233   1.484       .  S
C11         C142   1.496       .  S
C12         C114   1.509       .  S
O13          C26   1.272       .  A
O13         Co21   2.028   1_554  S
O14          C27   1.298   1_655  A
O14         Co22   2.115   1_554  S
O15          C28   1.273   1_565  A
O15         Co23   1.982       .  S
O16          C29   1.255   1_545  A
O16         Co24   1.971       .  S
O17          C29   1.266       .  A
O17         Co22   2.022   1_554  S
O18          C28   1.280       .  A
O18         Co21   2.031   1_554  S
O19          C26   1.261   1_655  A
O19         Co24   1.965       .  S
O20          C27   1.261       .  A
O20         Co23   1.887       .  S
Co21         O25   2.043       .  S
Co22         O25   2.027   1_665  S
Co23         O25   2.002   1_564  S
Co24         O25   2.036   1_654  S
C26         C170   1.500       .  S
C27         C205   1.493       .  S
C28         C310   1.505       .  S
C29         C282   1.494       .  S
C30         C198   1.488       .  S
C30          N31   1.360       .  A
C30          N35   1.360       .  A
N31          C32   1.359       .  A
C32         C177   1.486       .  S
C32          N33   1.359       .  A
N33          C34   1.362       .  A
C34          C93   1.500       .  S
C34          N35   1.362       .  A
C36         C121   1.511       .  S
C36          N37   1.363       .  A
C36          N41   1.362       .  A
N37          C38   1.361       .  A
C38          C86   1.493       .  S
C38          N39   1.360       .  A
N39          C40   1.358       .  A
C40         C149   1.484       .  S
C40          N41   1.359       .  A
C42         C317   1.525       .  S
C42          N43   1.358       .  A
C42          N47   1.369       .  A
N43          C44   1.355       .  A
C44          C58   1.486       .  S
C44          N45   1.354       .  A
N45          C46   1.356       .  A
C46         C289   1.503       .  S
C46          N47   1.366       .  A
C48         C254   1.484   1_545  S
C48          N49   1.360       .  A
C48          N53   1.358       .  A
N49          C50   1.360       .  A
C50         C226   1.486       .  S
C50          N51   1.358       .  A
N51          C52   1.361       .  A
C52          C65   1.509       .  S
C52          N53   1.359       .  A
C54          C55   1.410       .  A
C54          C59   1.412       .  A
C54          C72   1.450       .  S
C55          C60   1.497       .  S
C55          C56   1.411   1_545  A
C56          C57   1.410       .  A
C56          C61   1.451       .  S
C57          C58   1.414   1_565  A
C57          C73   1.451       .  S
C58          C59   1.415       .  A
C59          C62   1.450       .  S
C60          C63   1.406       .  A
C60          C67   1.407       .  A
C61          N78   1.157       .  T
C62          N80   1.157       .  T
C63          C64   1.412   1_545  A
C63          C68   1.452   1_545  S
C64          C65   1.426   1_565  A
C64          C70   1.450       .  S
C65          C66   1.425       .  A
C66          C67   1.413       .  A
C66          C69   1.452       .  S
C67          C71   1.451       .  S
C68          N75   1.157       .  T
C69          N76   1.157       .  T
C70          N74   1.158       .  T
C71          N77   1.158       .  T
C72          N81   1.157       .  T
C73          N79   1.157       .  T
C82          C83   1.410       .  A
C82          C87   1.412       .  A
C82         C100   1.450       .  S
C83          C88   1.501   1_655  S
C83          C84   1.411   1_655  A
C84          C85   1.414       .  A
C84          C89   1.450       .  S
C85          C86   1.416   1_455  A
C85         C101   1.450       .  S
C86          C87   1.416       .  A
C87          C90   1.450       .  S
C88          C91   1.408       .  A
C88          C95   1.409   1_455  A
C89         N106   1.157       .  T
C90         N108   1.157       .  T
C91          C92   1.412       .  A
C91          C96   1.451       .  S
C92          C93   1.419       .  A
C92          C98   1.449       .  S
C93          C94   1.420   1_455  A
C94          C95   1.414       .  A
C94          C97   1.451       .  S
C95          C99   1.451       .  S
C96         N103   1.157       .  T
C97         N104   1.157       .  T
C98         N102   1.157       .  T
C99         N105   1.158       .  T
C100        N109   1.157       .  T
C101        N107   1.158       .  T
C110        C111   1.410       .  A
C110        C115   1.418       .  A
C110        C128   1.450       .  S
C111        C116   1.505       .  S
C111        C112   1.408       .  A
C112        C113   1.412   1_655  A
C112        C117   1.452   1_655  S
C113        C114   1.425   1_455  A
C113        C129   1.450       .  S
C114        C115   1.421       .  A
C115        C118   1.451       .  S
C116        C119   1.410       .  A
C116        C123   1.408       .  A
C117        N134   1.157       .  T
C118        N136   1.157       .  T
C119        C120   1.416       .  A
C119        C124   1.451       .  S
C120        C121   1.424       .  A
C120        C126   1.452   1_655  S
C121        C122   1.424       .  A
C122        C123   1.415       .  A
C122        C125   1.450       .  S
C123        C127   1.451       .  S
C124        N131   1.157   1_655  T
C125        N132   1.158       .  T
C126        N130   1.157       .  T
C127        N133   1.157       .  T
C128        N137   1.157       .  T
C129        N135   1.157       .  T
C138        C139   1.412   1_455  A
C138        C143   1.416       .  A
C138        C156   1.450       .  S
C139        C144   1.503       .  S
C139        C140   1.410       .  A
C140        C141   1.412       .  A
C140        C145   1.451       .  S
C141        C142   1.419       .  A
C141        C157   1.452       .  S
C142        C143   1.415   1_655  A
C143        C146   1.448       .  S
C144        C147   1.413   1_655  A
C144        C151   1.414       .  A
C145        N162   1.158       .  T
C146        N164   1.157       .  T
C147        C148   1.413       .  A
C147        C152   1.450       .  S
C148        C149   1.412   1_455  A
C148        C154   1.450       .  S
C149        C150   1.411       .  A
C150        C151   1.413       .  A
C150        C153   1.450       .  S
C151        C155   1.450       .  S
C152        N159   1.157       .  T
C153        N160   1.157       .  T
C154        N158   1.157       .  T
C155        N161   1.157       .  T
C156        N165   1.157       .  T
C157        N163   1.157   1_556  T
C166        C167   1.411       .  A
C166        C171   1.415       .  A
C166        C184   1.449       .  S
C167        C172   1.502       .  S
C167        C168   1.409       .  A
C168        C169   1.413       .  A
C168        C173   1.452       .  S
C169        C170   1.420       .  A
C169        C185   1.449       .  S
C170        C171   1.418       .  A
C171        C174   1.452       .  S
C172        C175   1.412       .  A
C172        C179   1.413   1_455  A
C173        N190   1.157       .  T
C174        N192   1.157       .  T
C175        C176   1.413       .  A
C175        C180   1.450       .  S
C176        C177   1.412       .  A
C176        C182   1.450       .  S
C177        C178   1.412   1_455  A
C178        C179   1.414       .  A
C178        C181   1.450       .  S
C179        C183   1.450       .  S
C180        N187   1.157       .  T
C181        N188   1.157       .  T
C182        N186   1.158       .  T
C183        N189   1.158       .  T
C184        N193   1.158       .  T
C185        N191   1.157   1_554  T
C194        C195   1.411       .  A
C194        C199   1.414       .  A
C194        C212   1.451       .  S
C195        C200   1.501       .  S
C195        C196   1.412   1_455  A
C196        C197   1.413       .  A
C196        C201   1.449       .  S
C197        C198   1.413   1_655  A
C197        C213   1.451       .  S
C198        C199   1.414       .  A
C199        C202   1.449       .  S
C200        C203   1.409       .  A
C200        C207   1.413       .  A
C201        N218   1.158       .  T
C202        N220   1.158       .  T
C203        C204   1.410       .  A
C203        C208   1.452       .  S
C204        C205   1.420       .  A
C204        C210   1.452       .  S
C205        C206   1.414       .  A
C206        C207   1.415       .  A
C206        C209   1.450   1_455  S
C207        C211   1.449   1_455  S
C208        N215   1.157       .  T
C209        N216   1.157       .  T
C210        N214   1.158   1_554  T
C211        N217   1.157       .  T
C212        N221   1.157       .  T
C213        N219   1.157       .  T
C222        C223   1.411   1_565  A
C222        C227   1.412       .  A
C222        C240   1.450       .  S
C223        C228   1.496       .  S
C223        C224   1.410       .  A
C224        C225   1.411       .  A
C224        C229   1.451       .  S
C225        C226   1.414       .  A
C225        C241   1.448       .  S
C226        C227   1.414   1_545  A
C227        C230   1.451       .  S
C228        C231   1.412       .  A
C228        C235   1.408   1_545  A
C229        N246   1.157       .  T
C230        N248   1.157       .  T
C231        C232   1.414       .  A
C231        C236   1.449       .  S
C232        C233   1.413       .  A
C232        C238   1.450       .  S
C233        C234   1.416   1_545  A
C234        C235   1.408       .  A
C234        C237   1.449       .  S
C235        C239   1.454       .  S
C236        N243   1.158       .  T
C237        N244   1.157   1_556  T
C238        N242   1.156       .  T
C239        N245   1.156       .  T
C240        N249   1.158       .  T
C241        N247   1.158       .  T
C250        C251   1.412       .  A
C250        C255   1.412       .  A
C250        C268   1.449       .  S
C251        C256   1.502       .  S
C251        C252   1.413   1_565  A
C252        C253   1.413       .  A
C252        C257   1.451       .  S
C253        C254   1.411   1_545  A
C253        C269   1.449       .  S
C254        C255   1.413       .  A
C255        C258   1.451       .  S
C256        C259   1.406       .  A
C256        C263   1.408       .  A
C257        N274   1.157       .  T
C258        N276   1.157       .  T
C259        C260   1.414       .  A
C259        C264   1.452       .  S
C260        C261   1.429       .  A
C260        C266   1.452       .  S
C261        C262   1.425       .  A
C262        C263   1.415       .  A
C262        C265   1.450   1_565  S
C263        C267   1.452   1_565  S
C264        N271   1.157       .  T
C265        N272   1.158       .  T
C266        N270   1.157   1_556  T
C267        N273   1.157       .  T
C268        N277   1.157       .  T
C269        N275   1.157       .  T
C278        C279   1.413   1_545  A
C278        C283   1.411       .  A
C278        C296   1.452       .  S
C279        C284   1.510       .  S
C279        C280   1.416       .  A
C280        C281   1.418       .  A
C280        C285   1.450       .  S
C281        C282   1.413       .  A
C281        C297   1.450       .  S
C282        C283   1.418   1_565  A
C283        C286   1.452       .  S
C284        C287   1.415       .  A
C284        C291   1.412   1_565  A
C285        N302   1.157       .  T
C286        N304   1.157       .  T
C287        C288   1.417       .  A
C287        C292   1.450       .  S
C288        C289   1.417   1_565  A
C288        C294   1.451       .  S
C289        C290   1.421       .  A
C290        C291   1.413       .  A
C290        C293   1.451       .  S
C291        C295   1.453       .  S
C292        N299   1.158       .  T
C293        N300   1.159       .  T
C294        N298   1.157       .  T
C295        N301   1.156       .  T
C296        N305   1.157       .  T
C297        N303   1.157       .  T
C306        C307   1.408       .  A
C306        C311   1.415       .  A
C306        C324   1.451       .  S
C307        C312   1.504       .  S
C307        C308   1.409   1_545  A
C308        C309   1.412       .  A
C308        C313   1.452       .  S
C309        C310   1.422   1_565  A
C309        C325   1.448       .  S
C310        C311   1.423       .  A
C311        C314   1.450       .  S
C312        C315   1.404       .  A
C312        C319   1.408       .  A
C313        N330   1.157       .  T
C314        N332   1.157       .  T
C315        C316   1.414       .  A
C315        C320   1.455       .  S
C316        C317   1.436       .  A
C316        C322   1.450       .  S
C317        C318   1.428       .  A
C318        C319   1.416       .  A
C318        C321   1.452       .  S
C319        C323   1.452       .  S
C320        N327   1.156       .  T
C321        N328   1.156       .  T
C322        N326   1.159       .  T
C323        N329   1.158       .  T
C324        N333   1.157       .  T
C325        N331   1.157       .  T
