geometry optimzed in LAMMPS
_audit_creation_date              2020-12-01 
_audit_creation_method            'lammps2cif' 
_symmetry_space_group_name_H-M    'P1' 
_symmetry_Int_Tables_number       1 
_symmetry_cell_setting            triclinic 
loop_ 
_symmetry_equiv_pos_as_xyz 
  x,y,z 
_cell_length_a                    29.70125776 
_cell_length_b                    22.05111308261393 
_cell_length_c                    20.781559956894064 
_cell_angle_alpha                 90.29348755737125 
_cell_angle_beta                  88.1912450419315 
_cell_angle_gamma                 90.3430349888239 
loop_ 
_atom_site_label 
_atom_site_type_symbol 
_atom_site_fract_x 
_atom_site_fract_y 
_atom_site_fract_z 
_atom_site_charge 
In1        In  0.43530476  0.00275815  0.71809954     1.36900
C2          C  0.47049574  0.97815406  0.83107116     0.77600
O3          O  0.44934818  0.90652561  0.68914715    -0.60900
O4          O  0.47685398  0.97797147  0.63090284    -0.51800
C5          C  0.35202705  0.98769091  0.67742150     0.70300
O6          O  0.36149875  0.97924347  0.73562439    -0.46600
C7          C  0.44542520  0.12296666  0.71667595     0.75000
O8          O  0.42849030  0.97899016  0.82366499    -0.57700
O9          O  0.47488378  0.08816992  0.69226105    -0.48600
O10         O  0.49400700  0.98816668  0.78079320    -0.54900
C11         C  0.47219575  0.92159588  0.63947016     0.85100
O12         O  0.38505871  0.00298894  0.64138128    -0.56800
O13         O  0.41112937  0.09648975  0.74009972    -0.60100
In14       In  0.52875470  0.79937674  0.51173837     1.36900
C15         C  0.53801620  0.68287145  0.53817705     0.77600
O16         O  0.50997991  0.89319989  0.54164655    -0.60900
O17         O  0.49120980  0.82098300  0.60469792    -0.51800
C18         C  0.61045477  0.84655356  0.49909157     0.70300
O19         O  0.59395863  0.82984096  0.55298241    -0.46600
C20         C  0.48780236  0.79402258  0.39999880     0.75000
O21         O  0.57072586  0.71867007  0.53083011    -0.58500
O22         O  0.46688234  0.80982130  0.45102671    -0.48600
O23         O  0.49980925  0.70734894  0.53817634    -0.54900
C24         C  0.49158289  0.87733262  0.59432167     0.85100
O25         O  0.58465605  0.83990778  0.45244220    -0.56800
O26         O  0.52862808  0.78193193  0.40662503    -0.60100
In27       In  0.55379886  0.26817337  0.03133747     1.36900
C28         C  0.51708931  0.29439304  0.92056841     0.77600
O29         O  0.57518603  0.17525934  0.00126721    -0.60900
O30         O  0.51810723  0.18121499  0.06462639    -0.51800
C31         C  0.63905726  0.28338738  0.06310025     0.70300
O32         O  0.62819638  0.27537877  0.00545709    -0.46600
C33         C  0.51634493  0.34800058  0.11167601     0.75000
O34         O  0.55733031  0.30855622  0.93181937    -0.58500
O35         O  0.51829248  0.29204377  0.12411972    -0.48600
O36         O  0.49557801  0.26949035  0.96657785    -0.54900
C37         C  0.54416887  0.14750968  0.03152150     0.85100
O38         O  0.60652385  0.28435031  0.10329713    -0.56800
O39         O  0.53248903  0.36318130  0.05714760    -0.60100
In40       In  0.45928029  0.46640669  0.24360172     1.36900
C41         C  0.45378930  0.58538834  0.22922529     0.77600
O42         O  0.45852913  0.46091842  0.35096837    -0.60900
O43         O  0.52173116  0.47326633  0.30210705    -0.51800
C44         C  0.37685910  0.42014744  0.23786230     0.70300
O45         O  0.38798312  0.46855810  0.20941468    -0.46600
C46         C  0.49725249  0.39163285  0.15799945     0.75000
O47         O  0.42721225  0.55468330  0.26464707    -0.58500
O48         O  0.48737547  0.44544600  0.14378514    -0.48600
O49         O  0.48399730  0.55514975  0.19943287    -0.54900
C50         C  0.50033854  0.46853754  0.35516786     0.85100
O51         O  0.40774024  0.39598867  0.26879948    -0.56800
O52         O  0.48924275  0.37745704  0.21575080    -0.60100
N53         N  0.92512552  0.14200926  0.36772464    -0.36600
N54         N  0.98409611  0.07916751  0.45369590    -0.57200
N55         N  0.05505707  0.15917038  0.40687025    -0.36600
N56         N  0.99584837  0.22489031  0.32484374    -0.57200
C57         C  0.89552806  0.10831658  0.40326581     0.27000
C58         C  0.90125876  0.18479197  0.33743698     0.27000
C59         C  0.07402874  0.13359280  0.45829879     0.27000
C60         C  0.08023212  0.20827515  0.39052713     0.27000
C61         C  0.94951926  0.03924615  0.45384828     0.35600
C62         C  0.01995237  0.04913509  0.47557668     0.35600
C63         C  0.96502629  0.23667370  0.28040188     0.35600
C64         C  0.03577750  0.24477835  0.30020231     0.35600
C65         C  0.85236140  0.13051458  0.39637583    -0.21900
C66         C  0.85589170  0.17839347  0.35454167    -0.21900
C67         C  0.11114468  0.16768141  0.47582879    -0.21900
C68         C  0.11500641  0.21494743  0.43307671    -0.21900
C69         C  0.96314666  0.98371602  0.47712754    -0.22900
C70         C  0.00802983  0.99002621  0.49094931    -0.22900
C71         C  0.98514183  0.26569397  0.22786845    -0.22900
C72         C  0.03026583  0.27033461  0.24019039    -0.22900
C73         C  0.90569598  0.05363003  0.43495642    -0.18300
C74         C  0.91874664  0.22392351  0.28878672    -0.18300
C75         C  0.07655358  0.24118191  0.33272554    -0.18300
C76         C  0.06264648  0.07584187  0.48338386    -0.18300
H77         H  0.82125869  0.11255885  0.41733995     0.14600
H78         H  0.82779298  0.20383447  0.33715933     0.14600
H79         H  0.13419504  0.15793451  0.51370297     0.14600
H80         H  0.14159177  0.24875628  0.43154949     0.14600
H81         H  0.94297475  0.94298948  0.48317464     0.12900
H82         H  0.02941462  0.95523231  0.50986226     0.12900
H83         H  0.96911436  0.28140091  0.18503357     0.12900
H84         H  0.05592085  0.29012758  0.20856454     0.12900
H85         H  0.95842987  0.13038566  0.35680995     0.26200
H86         H  0.03146486  0.13837562  0.37779201     0.26200
In87       In  0.55764651  0.49859990  0.53011687     1.36900
C88         C  0.52155863  0.47495714  0.41727800     0.77600
O89         O  0.54050613  0.40396347  0.56192891    -0.60900
O90         O  0.52181073  0.47839970  0.62302616    -0.51800
C91         C  0.64354322  0.48415918  0.55674915     0.70300
O92         O  0.63078161  0.48612433  0.49935239    -0.46600
C93         C  0.54468975  0.61755601  0.53997727     0.75000
O94         O  0.56356956  0.47807897  0.42350268    -0.58500
O95         O  0.51383173  0.58001322  0.55317875    -0.48600
O96         O  0.49860421  0.48073479  0.46872128    -0.54900
C97         C  0.52166831  0.42177515  0.61401641     0.85100
O98         O  0.61224926  0.48681203  0.59899176    -0.56800
O99         O  0.58187220  0.59442742  0.52389074    -0.60100
In100      In  0.45876473  0.30719884  0.74412350     1.36900
C101        C  0.45053347  0.18889799  0.72094792     0.77600
O102        O  0.48250506  0.39907019  0.71269527    -0.60900
O103        O  0.49794916  0.32389235  0.65148528    -0.51800
C104        C  0.37746480  0.35477864  0.74520818     0.70300
O105        O  0.39463412  0.32977005  0.69550773    -0.46600
C106        C  0.49679276  0.30290629  0.85819155     0.75000
O107        O  0.41812202  0.22209403  0.73829022    -0.58500
O108        O  0.51866425  0.31868172  0.80806900    -0.48600
O109        O  0.48738509  0.21656724  0.71141745    -0.54900
C110        C  0.50045578  0.38038301  0.66060835     0.85100
O111        O  0.40269579  0.35737591  0.79284689    -0.56800
O112        O  0.45588532  0.29169588  0.85012782    -0.60100
In113      In  0.43405276  0.76955466  0.22232916     1.36900
C114        C  0.46744063  0.78840568  0.33720821     0.77600
O115        O  0.41712788  0.67727396  0.25611937    -0.60900
O116        O  0.47344115  0.68581101  0.19047020    -0.51800
C117        C  0.34768203  0.77938709  0.19406718     0.70300
O118        O  0.36804858  0.82144784  0.22280010    -0.46600
C119        C  0.47128473  0.84559146  0.13702190     0.75000
O120        O  0.42589465  0.79464983  0.32786167    -0.58500
O121        O  0.46197587  0.79124973  0.12308828    -0.48600
O122        O  0.49113424  0.77504210  0.28796357    -0.54900
C123        C  0.44844587  0.65117826  0.22468418     0.85100
O124        O  0.37135319  0.73372693  0.18068439    -0.56800
O125        O  0.46246354  0.86045121  0.19453905    -0.60100
In126      In  0.53152529  0.96245385  0.00578230     1.36900
C127        C  0.53899541  0.08144946  0.02527694     0.77600
O128        O  0.53271580  0.96043595  0.89794440    -0.60900
O129        O  0.46939570  0.97176159  0.94638379    -0.51800
C130        C  0.61340208  0.91453413  0.00966797     0.70300
O131        O  0.60358552  0.96405476  0.03688562    -0.46600
C132        C  0.49117194  0.88822037  0.09023582     0.75000
O133        O  0.56343012  0.05197953  0.98578353    -0.58500
O134        O  0.50462374  0.94059735  0.10556744    -0.48600
O135        O  0.51017154  0.04993618  0.05658660    -0.54900
C136        C  0.49109782  0.96896058  0.89336439     0.85100
O137        O  0.58127715  0.88949645  0.98144337    -0.56800
O138        O  0.49663638  0.87496433  0.03156703    -0.60100
N139        N  0.06881066  0.65976365  0.85931767    -0.36600
N140        N  0.99668761  0.73522678  0.91091426    -0.57200
N141        N  0.93939059  0.67512016  0.82012587    -0.36600
N142        N  0.01233507  0.60385057  0.76418043    -0.57200
C143        C  0.09186007  0.70008396  0.89514735     0.27000
C144        C  0.09932468  0.62952691  0.82191438     0.27000
C145        C  0.91283657  0.72058569  0.84249652     0.27000
C146        C  0.92132150  0.65440907  0.76527038     0.27000
C147        C  0.02722749  0.74498306  0.95658124     0.35600
C148        C  0.95625529  0.75081674  0.93719492     0.35600
C149        C  0.04728208  0.56517627  0.75982384     0.35600
C150        C  0.97742849  0.57559862  0.73656169     0.35600
C151        C  0.13748854  0.69615965  0.87935874    -0.21900
C152        C  0.14219706  0.65157362  0.83319789    -0.21900
C153        C  0.87813291  0.72985087  0.80053676    -0.21900
C154        C  0.88336067  0.68780876  0.75193258    -0.21900
C155        C  0.00641142  0.76852459  0.01174538    -0.22900
C156        C  0.96118559  0.77187327  0.99957955    -0.22900
C157        C  0.03501161  0.51284398  0.72729556    -0.22900
C158        C  0.99054437  0.51961172  0.71227808    -0.22900
C159        C  0.07363217  0.73341894  0.94808931    -0.18300
C160        C  0.09004079  0.57743389  0.78446516    -0.18300
C161        C  0.93416902  0.60059063  0.73285523    -0.18300
C162        C  0.91558117  0.74773775  0.90404184    -0.18300
H163        H  0.16475318  0.72097716  0.90094938     0.14600
H164        H  0.17374495  0.63553337  0.81209156     0.14600
H165        H  0.85075680  0.76184635  0.80593219     0.14600
H166        H  0.86074786  0.68091686  0.71267834     0.14600
H167        H  0.02207429  0.78123301  0.05620261     0.12900
H168        H  0.93506893  0.78773353  0.03290626     0.12900
H169        H  0.05568088  0.47370147  0.71614824     0.12900
H170        H  0.97009234  0.48688920  0.68722768     0.12900
H171        H  0.03559757  0.64636615  0.86777680     0.26200
H172        H  0.96328446  0.65271732  0.84650354     0.26200
C173        C  0.77864080  0.94009613  0.00427736    -0.17800
C174        C  0.82137056  0.91684083  0.98851151    -0.20000
C175        C  0.82660478  0.85536962  0.97227602     0.20700
C176        C  0.78858503  0.81653059  0.97397448    -0.02900
C177        C  0.74548688  0.84010338  0.98896141    -0.06000
C178        C  0.74040193  0.90236449  0.00342929     0.20900
C179        C  0.70731066  0.80175281  0.98706908     0.19100
C180        C  0.71262429  0.73991930  0.97296075    -0.17400
C181        C  0.75536332  0.71642228  0.95890267    -0.19700
C182        C  0.79334238  0.75451802  0.95835713     0.20600
C183        C  0.83572744  0.73208131  0.94003758    -0.32700
C184        C  0.87320096  0.77110184  0.93452082     0.01300
C185        C  0.86875233  0.83245160  0.95198755    -0.24000
C186        C  0.69702081  0.92608874  0.01413478    -0.28600
C187        C  0.65890535  0.88851474  0.00866211     0.07000
C188        C  0.66432061  0.82628397  0.99675852    -0.27300
H189        H  0.77536277  0.98793548  0.01550842     0.11700
H190        H  0.85021462  0.94717475  0.98788404     0.12800
H191        H  0.68361884  0.70994999  0.97158949     0.11900
H192        H  0.75858782  0.66872457  0.94693351     0.11100
H193        H  0.83933233  0.68466884  0.92677153     0.16500
H194        H  0.89765446  0.86255436  0.94741571     0.12400
H195        H  0.69280375  0.97421291  0.02324097     0.15300
H196        H  0.63490601  0.79721683  0.99324793     0.15100
C197        C  0.20847881  0.66926524  0.15350850    -0.17800
C198        C  0.16932472  0.66289546  0.11868042    -0.20000
C199        C  0.15409115  0.71099040  0.08144909     0.20700
C200        C  0.17707333  0.76722894  0.08182840    -0.02900
C201        C  0.21647940  0.77383048  0.11750459    -0.06000
C202        C  0.23283793  0.72391067  0.15178973     0.20900
C203        C  0.24088823  0.82904898  0.11585472     0.19100
C204        C  0.22443537  0.87792613  0.08060765    -0.17400
C205        C  0.18551669  0.87118482  0.04466063    -0.19700
C206        C  0.16217928  0.81558979  0.04372052     0.20600
C207        C  0.12580529  0.80620078  0.00290211    -0.32700
C208        C  0.10462926  0.74909883  0.00019033     0.01300
C209        C  0.11783237  0.70258293  0.04105835    -0.24000
C210        C  0.27461656  0.72817821  0.18055324    -0.28600
C211        C  0.30024823  0.78166429  0.17610954     0.07000
C212        C  0.28255187  0.83296343  0.14623543    -0.27300
H213        H  0.22051311  0.63077521  0.18010525     0.11700
H214        H  0.15183411  0.61962504  0.11906395     0.12800
H215        H  0.24253383  0.92072793  0.07902084     0.11900
H216        H  0.17441761  0.90893261  0.01612410     0.11100
H217        H  0.11563829  0.84181922  0.97076527     0.16500
H218        H  0.10149864  0.65855380  0.03826743     0.12400
H219        H  0.28832094  0.68878769  0.20393446     0.15300
H220        H  0.30261767  0.87409937  0.14245951     0.15100
C221        C  0.24624410  0.44346797  0.64134498    -0.17800
C222        C  0.20541266  0.47471342  0.64667003    -0.20000
C223        C  0.18452978  0.48478440  0.70727185     0.20700
C224        C  0.20395486  0.46079520  0.76280522    -0.02900
C225        C  0.24532658  0.43000771  0.75752617    -0.06000
C226        C  0.26698273  0.42226708  0.69658965     0.20900
C227        C  0.26594699  0.40936171  0.81356170     0.19100
C228        C  0.24392594  0.41634608  0.87380376    -0.17400
C229        C  0.20272596  0.44637713  0.87898296    -0.19700
C230        C  0.18317036  0.47008188  0.82403461     0.20600
C231        C  0.14436816  0.50539179  0.82962507    -0.32700
C232        C  0.12656660  0.53253817  0.77513996     0.01300
C233        C  0.14579911  0.52072766  0.71381801    -0.24000
C234        C  0.30971457  0.39554361  0.69236409    -0.28600
C235        C  0.33130972  0.37825655  0.74847045     0.07000
C236        C  0.30894077  0.38406352  0.80865653    -0.27300
H237        H  0.26227115  0.43748450  0.59419635     0.11700
H238        H  0.19075082  0.49232684  0.60354611     0.12800
H239        H  0.25913831  0.40001149  0.91709964     0.11900
H240        H  0.18688148  0.45278030  0.92619728     0.11100
H241        H  0.12907224  0.51437792  0.87677925     0.16500
H242        H  0.13176230  0.54166801  0.67189764     0.12400
H243        H  0.32692733  0.39052905  0.64586999     0.15300
H244        H  0.32530204  0.36954708  0.85184440     0.15100
C245        C  0.80169956  0.54613458  0.51708131    -0.17800
C246        C  0.84316724  0.56289033  0.54228240    -0.20000
C247        C  0.85185312  0.55246122  0.60727698     0.20700
C248        C  0.81902805  0.52284146  0.64673514    -0.02900
C249        C  0.77731695  0.50586726  0.62131588    -0.06000
C250        C  0.76825340  0.51859052  0.55645162     0.20900
C251        C  0.74387083  0.47893435  0.66174732     0.19100
C252        C  0.75279645  0.46720207  0.72634410    -0.17400
C253        C  0.79401330  0.48421225  0.75158173    -0.19700
C254        C  0.82694464  0.51292177  0.71247903     0.20600
C255        C  0.86667578  0.53465735  0.73875623    -0.32700
C256        C  0.89835840  0.56653528  0.70043560     0.01300
C257        C  0.89166030  0.57387975  0.63443673    -0.24000
C258        C  0.72512381  0.50658937  0.53330438    -0.28600
C259        C  0.69105831  0.48319072  0.57478606     0.07000
C260        C  0.70118032  0.46735057  0.63801167    -0.27300
H261        H  0.79535410  0.55617840  0.46721055     0.11700
H262        H  0.86799179  0.58548204  0.51135160     0.12800
H263        H  0.72738953  0.44648670  0.75784590     0.11900
H264        H  0.79969571  0.47630461  0.80209604     0.11100
H265        H  0.87198146  0.52990313  0.78989298     0.16500
H266        H  0.91609220  0.59932457  0.60545167     0.12400
H267        H  0.71725446  0.51923357  0.48459894     0.15300
H268        H  0.67497104  0.44902683  0.66996313     0.15100
C269        C  0.16925950  0.41828170  0.26233631    -0.17800
C270        C  0.21180042  0.44322649  0.24758463    -0.20000
C271        C  0.25001496  0.40604946  0.24359021     0.20700
C272        C  0.24500646  0.34276521  0.25143354    -0.02900
C273        C  0.20205292  0.31752608  0.26483761    -0.06000
C274        C  0.16417051  0.35565715  0.27234527     0.20900
C275        C  0.19740981  0.25437415  0.27360742     0.19100
C276        C  0.23523452  0.21684683  0.26720848    -0.17400
C277        C  0.27790428  0.24199068  0.25542704    -0.19700
C278        C  0.28318487  0.30489063  0.24879082     0.20600
C279        C  0.32613214  0.33075464  0.24215036    -0.32700
C280        C  0.33141735  0.39374870  0.23656529     0.01300
C281        C  0.29333668  0.43111176  0.23484492    -0.24000
C282        C  0.12243897  0.33066067  0.29238119    -0.28600
C283        C  0.11834613  0.26804026  0.30371021     0.07000
C284        C  0.15543790  0.23005618  0.29165075    -0.27300
H285        H  0.14050126  0.44813388  0.26725703     0.11700
H286        H  0.21501686  0.49183743  0.24135331     0.12800
H287        H  0.23202762  0.16824513  0.27354030     0.11900
H288        H  0.30689176  0.21236901  0.25287563     0.11100
H289        H  0.35561790  0.30199290  0.24269750     0.16500
H290        H  0.29758058  0.47981811  0.23061882     0.12400
H291        H  0.09367535  0.35987105  0.30141913     0.15300
H292        H  0.15196180  0.18165570  0.29968432     0.15100
C293        C  0.74569777  0.35564424  0.22171695    -0.17800
C294        C  0.78633359  0.34875914  0.25286393    -0.20000
C295        C  0.81885990  0.30804327  0.22873031     0.20700
C296        C  0.81137026  0.27606078  0.17090851    -0.02900
C297        C  0.77058729  0.28359149  0.13903209    -0.06000
C298        C  0.73717663  0.32230687  0.16569103     0.20900
C299        C  0.76217756  0.24972192  0.08270139     0.19100
C300        C  0.79528830  0.21021312  0.05766713    -0.17400
C301        C  0.83549217  0.20210415  0.08979704    -0.19700
C302        C  0.84333200  0.23369483  0.14719599     0.20600
C303        C  0.88091583  0.22061859  0.18368897    -0.32700
C304        C  0.88674760  0.24949506  0.24319390     0.01300
C305        C  0.85718006  0.29550865  0.26377022    -0.24000
C306        C  0.69494176  0.32450046  0.13791524    -0.28600
C307        C  0.68577448  0.28902805  0.08358598     0.07000
C308        C  0.71990464  0.25348434  0.05459881    -0.27300
H309        H  0.72038986  0.38572830  0.24250253     0.11700
H310        H  0.79159555  0.37355702  0.29717264     0.12800
H311        H  0.78943199  0.18397300  0.01447608     0.11900
H312        H  0.85982408  0.16966769  0.07085568     0.11100
H313        H  0.90399039  0.18512987  0.16816496     0.16500
H314        H  0.86193418  0.31741684  0.30992511     0.12400
H315        H  0.66850874  0.35205678  0.16001494     0.15300
H316        H  0.71255250  0.22565455  0.01301663     0.15100
C317        C  0.75033669  0.92839156  0.58939231    -0.17800
C318        C  0.79280757  0.95549516  0.58057038    -0.20000
C319        C  0.81081356  0.96594458  0.51832402     0.20700
C320        C  0.78632042  0.94722393  0.46443618    -0.02900
C321        C  0.74337197  0.92044447  0.47331950    -0.06000
C322        C  0.72510971  0.91153247  0.53611457     0.20900
C323        C  0.71830435  0.90391002  0.41930130     0.19100
C324        C  0.73678495  0.91260126  0.35707618    -0.17400
C325        C  0.77939683  0.93891014  0.34827095    -0.19700
C326        C  0.80405715  0.95710384  0.40155121     0.20600
C327        C  0.84519602  0.98751824  0.39293451    -0.32700
C328        C  0.86825837  0.00974501  0.44615030     0.01300
C329        C  0.85181729  0.99720086  0.50880831    -0.24000
C330        C  0.68172499  0.88673286  0.54441207    -0.28600
C331        C  0.65634939  0.87140275  0.49069425     0.07000
C332        C  0.67494473  0.87972435  0.42837216    -0.27300
H333        H  0.73689208  0.92154795  0.63790641     0.11700
H334        H  0.81122162  0.96927498  0.62243855     0.12800
H335        H  0.71802078  0.89980382  0.31518566     0.11900
H336        H  0.79267431  0.94619436  0.29974064     0.11100
H337        H  0.85810216  0.99737600  0.34468219     0.16500
H338        H  0.86967403  0.01462938  0.54974405     0.12400
H339        H  0.66746652  0.88021694  0.59256574     0.15300
H340        H  0.65561171  0.86746326  0.38680683     0.15100
C341        C  0.25498901  0.97920422  0.49134138    -0.17800
C342        C  0.21356563  0.99020408  0.46385783    -0.20000
C343        C  0.17573634  0.00450047  0.50292906     0.20700
C344        C  0.17901732  0.00497275  0.57056377    -0.02900
C345        C  0.22084557  0.99330317  0.59838422    -0.06000
C346        C  0.25913256  0.98197645  0.55832227     0.20900
C347        C  0.22487725  0.99606388  0.66590130     0.19100
C348        C  0.18649664  0.00827591  0.70496880    -0.17400
C349        C  0.14509405  0.02064914  0.67731214    -0.19700
C350        C  0.14121514  0.02042992  0.61011982     0.20600
C351        C  0.10118823  0.03876602  0.58154468    -0.32700
C352        C  0.09894578  0.04164974  0.51418115     0.01300
C353        C  0.13554168  0.02204806  0.47532772    -0.24000
C354        C  0.30136528  0.97665631  0.58552915    -0.28600
C355        C  0.30617123  0.98254058  0.65228248     0.07000
C356        C  0.26760493  0.98977970  0.69264037    -0.27300
H357        H  0.28409570  0.97021682  0.46006878     0.11700
H358        H  0.21148229  0.98955995  0.41189387     0.12800
H359        H  0.18882908  0.01027032  0.75686075     0.11900
H360        H  0.11640162  0.03202008  0.70844860     0.11100
H361        H  0.07295760  0.05451811  0.61131871     0.16500
H362        H  0.13367484  0.02487075  0.42337873     0.12400
H363        H  0.33093738  0.97033495  0.55431029     0.15300
H364        H  0.27119417  0.99430643  0.74419370     0.15100
loop_ 
_geom_bond_atom_site_label_1 
_geom_bond_atom_site_label_2 
_geom_bond_distance 
_geom_bond_site_symmetry_2 
_ccdc_geom_bond_type 
In1           O3   2.241   1_545  S
In1           O4   2.228   1_545  S
In1          O12   2.218       .  S
In1           O6   2.268   1_545  S
In1           O8   2.261   1_545  S
In1           O9   2.272       .  S
In1          O10   2.235   1_545  S
In1          O13   2.232       .  S
C2            O8   1.262       .  A
C2           O10   1.258       .  A
C2          C136   1.465       .  S
O3           C11   1.262       .  A
O4           C11   1.263       .  A
C5           O12   1.261   1_565  A
C5            O6   1.265       .  A
C5          C355   1.478       .  S
C7            O9   1.260       .  A
C7           O13   1.257       .  A
C7          C101   1.463       .  S
C11          C24   1.459       .  S
In14         O16   2.226       .  S
In14         O17   2.250       .  S
In14         O25   2.222       .  S
In14         O19   2.240       .  S
In14         O21   2.223       .  S
In14         O22   2.275       .  S
In14         O23   2.263       .  S
In14         O26   2.216       .  S
C15          O21   1.254       .  A
C15          O23   1.260       .  A
C15          C93   1.456       .  S
O16          C24   1.258       .  A
O17          C24   1.262       .  A
C18          O25   1.262       .  A
C18          O19   1.264       .  A
C18         C331   1.472       .  S
C20          O22   1.261       .  A
C20          O26   1.255       .  A
C20         C114   1.460       .  S
In27         O29   2.229       .  S
In27         O30   2.285       .  S
In27         O38   2.225       .  S
In27         O32   2.263       .  S
In27         O34   2.255   1_554  S
In27         O35   2.230       .  S
In27         O36   2.225   1_554  S
In27         O39   2.250       .  S
C28          O34   1.262       .  A
C28          O36   1.260       .  A
C28         C106   1.460       .  S
O29          C37   1.257       .  A
O30          C37   1.262       .  A
C31          O38   1.257       .  A
C31          O32   1.262       .  A
C31         C307   1.469       .  S
C33          O35   1.264       .  A
C33          O39   1.262       .  A
C33          C46   1.462       .  S
C37         C127   1.469       .  S
In40         O42   2.235       .  S
In40         O43   2.254       .  S
In40         O51   2.227       .  S
In40         O45   2.256       .  S
In40         O47   2.208       .  S
In40         O48   2.258       .  S
In40         O49   2.274       .  S
In40         O52   2.225       .  S
C41          O47   1.259       .  A
C41          O49   1.265       .  A
C41         C123   1.464       .  S
O42          C50   1.258       .  A
O43          C50   1.260       .  A
C44          O51   1.259       .  A
C44          O45   1.260       .  A
C44         C280   1.468       .  S
C46          O48   1.263       .  A
C46          O52   1.257       .  A
C50          C88   1.460       .  S
N53          C58   1.353       .  A
N53          C57   1.352       .  A
N53          H85   1.041       .  S
N54          C61   1.349       .  A
N54          C62   1.350   1_655  A
N55          C60   1.351       .  A
N55          C59   1.351       .  A
N55          H86   1.042       .  S
N56          C63   1.348       .  A
N56          C64   1.349   1_655  A
C57          C65   1.387       .  A
C57          C73   1.416       .  A
C58          C74   1.417       .  A
C58          C66   1.389       .  A
C59          C67   1.388       .  A
C59          C76   1.414       .  A
C60          C75   1.414       .  A
C60          C68   1.387       .  A
C61          C73   1.410       .  A
C61          C69   1.386   1_545  A
C62          C76   1.409       .  A
C62          C70   1.385   1_545  A
C63          C71   1.386       .  A
C63          C74   1.407       .  A
C64          C72   1.386       .  A
C64          C75   1.408       .  A
C65          C66   1.373       .  A
C65          H77   1.083       .  S
C66          H78   1.081       .  S
C67          C68   1.375       .  A
C67          H79   1.083       .  S
C68          H80   1.083       .  S
C69          C70   1.379   1_655  A
C69          H81   1.082       .  S
C70          H82   1.082       .  S
C71          C72   1.376   1_655  A
C71          H83   1.082       .  S
C72          H84   1.082       .  S
C73         C328   1.483       .  S
C74         C304   1.479       .  S
C75         C283   1.484       .  S
C76         C352   1.483       .  S
In87         O89   2.243       .  S
In87         O90   2.221       .  S
In87         O98   2.214       .  S
In87         O92   2.263       .  S
In87         O94   2.261       .  S
In87         O95   2.264       .  S
In87         O96   2.233       .  S
In87         O99   2.231       .  S
C88          O94   1.260       .  A
C88          O96   1.256       .  A
O89          C97   1.265       .  A
O90          C97   1.262       .  A
C91          O98   1.260       .  A
C91          O92   1.264       .  A
C91         C259   1.472       .  S
C93          O95   1.256       .  A
C93          O99   1.254       .  A
C97         C110   1.460       .  S
In100       O102   2.235       .  S
In100       O103   2.249       .  S
In100       O111   2.220       .  S
In100       O105   2.244       .  S
In100       O107   2.230       .  S
In100       O108   2.266       .  S
In100       O109   2.269       .  S
In100       O112   2.230       .  S
C101        O107   1.255       .  A
C101        O109   1.261       .  A
O102        C110   1.260       .  A
O103        C110   1.261       .  A
C104        O111   1.261       .  A
C104        O105   1.263       .  A
C104        C235   1.468       .  S
C106        O108   1.259       .  A
C106        O112   1.255       .  A
In113       O115   2.206       .  S
In113       O116   2.276       .  S
In113       O124   2.218       .  S
In113       O118   2.276       .  S
In113       O120   2.265       .  S
In113       O121   2.251       .  S
In113       O122   2.212       .  S
In113       O125   2.241       .  S
C114        O120   1.264       .  A
C114        O122   1.258       .  A
O115        C123   1.260       .  A
O116        C123   1.267       .  A
C117        O124   1.256       .  A
C117        O118   1.262       .  A
C117        C211   1.470       .  S
C119        O121   1.262       .  A
C119        O125   1.258       .  A
C119        C132   1.464       .  S
In126       O128   2.240   1_554  S
In126       O129   2.263   1_554  S
In126       O137   2.236   1_554  S
In126       O131   2.255       .  S
In126       O133   2.220   1_564  S
In126       O134   2.252       .  S
In126       O135   2.278   1_565  S
In126       O138   2.244       .  S
C127        O133   1.259   1_554  A
C127        O135   1.266       .  A
O128        C136   1.258       .  A
O129        C136   1.260       .  A
C130        O137   1.259   1_554  A
C130        O131   1.259       .  A
C130        C187   1.471       .  S
C132        O134   1.262       .  A
C132        O138   1.258       .  A
N139        C144   1.352       .  A
N139        C143   1.353       .  A
N139        H171   1.038       .  S
N140        C147   1.349   1_655  A
N140        C148   1.349       .  A
N141        C146   1.351       .  A
N141        C145   1.351       .  A
N141        H172   1.039       .  S
N142        C149   1.348       .  A
N142        C150   1.349   1_455  A
C143        C151   1.387       .  A
C143        C159   1.415       .  A
C144        C160   1.415       .  A
C144        C152   1.387       .  A
C145        C153   1.388       .  A
C145        C162   1.414       .  A
C146        C161   1.410       .  A
C146        C154   1.386       .  A
C147        C159   1.409       .  A
C147        C155   1.385   1_556  A
C148        C162   1.411       .  A
C148        C156   1.387       .  A
C149        C157   1.387       .  A
C149        C160   1.408       .  A
C150        C158   1.385       .  A
C150        C161   1.406       .  A
C151        C152   1.375       .  A
C151        H163   1.082       .  S
C152        H164   1.083       .  S
C153        C154   1.373       .  A
C153        H165   1.082       .  S
C154        H166   1.082       .  S
C155        C156   1.377   1_454  A
C155        H167   1.082       .  S
C156        H168   1.082   1_556  S
C157        C158   1.376   1_455  A
C157        H169   1.082       .  S
C158        H170   1.082       .  S
C159        C208   1.481   1_556  S
C160        C232   1.481       .  S
C161        C256   1.476       .  S
C162        C184   1.485       .  S
C173        C174   1.400   1_554  A
C173        C178   1.404       .  A
C173        H189   1.084       .  S
C174        C175   1.404       .  A
C174        H190   1.084       .  S
C175        C185   1.404       .  A
C175        C176   1.413       .  A
C176        C182   1.411       .  A
C176        C177   1.410       .  A
C177        C179   1.412       .  A
C177        C178   1.412   1_556  A
C178        C186   1.404       .  A
C179        C188   1.398       .  A
C179        C180   1.402       .  A
C180        C181   1.396       .  A
C180        H191   1.084       .  S
C181        C182   1.402       .  A
C181        H192   1.084       .  S
C182        C183   1.396       .  A
C183        C184   1.405       .  A
C183        H193   1.085       .  S
C184        C185   1.405       .  A
C185        H194   1.084       .  S
C186        C187   1.406       .  A
C186        H195   1.084       .  S
C187        C188   1.402   1_554  A
C188        H196   1.085       .  S
C197        C198   1.395       .  A
C197        C202   1.402       .  A
C197        H213   1.084       .  S
C198        C199   1.402       .  A
C198        H214   1.084       .  S
C199        C209   1.397       .  A
C199        C200   1.412       .  A
C200        C206   1.413       .  A
C200        C201   1.412       .  A
C201        C203   1.413       .  A
C201        C202   1.411       .  A
C202        C210   1.397       .  A
C203        C212   1.409       .  A
C203        C204   1.405       .  A
C204        C205   1.403       .  A
C204        H215   1.084       .  S
C205        C206   1.405       .  A
C205        H216   1.083       .  S
C206        C207   1.408       .  A
C207        C208   1.406       .  A
C207        H217   1.084   1_554  S
C208        C209   1.401       .  A
C209        H218   1.085       .  S
C210        C211   1.402       .  A
C210        H219   1.085       .  S
C211        C212   1.406       .  A
C212        H220   1.084       .  S
C221        C222   1.399       .  A
C221        C226   1.403       .  A
C221        H237   1.084       .  S
C222        C223   1.403       .  A
C222        H238   1.083       .  S
C223        C233   1.404       .  A
C223        C224   1.413       .  A
C224        C230   1.411       .  A
C224        C225   1.408       .  A
C225        C227   1.411       .  A
C225        C226   1.412       .  A
C226        C234   1.403       .  A
C227        C236   1.397       .  A
C227        C228   1.402       .  A
C228        C229   1.396       .  A
C228        H239   1.084       .  S
C229        C230   1.402       .  A
C229        H240   1.084       .  S
C230        C231   1.396       .  A
C231        C232   1.403       .  A
C231        H241   1.085       .  S
C232        C233   1.404       .  A
C233        H242   1.084       .  S
C234        C235   1.404       .  A
C234        H243   1.084       .  S
C235        C236   1.403       .  A
C236        H244   1.085       .  S
C245        C246   1.400       .  A
C245        C250   1.404       .  A
C245        H261   1.083       .  S
C246        C247   1.403       .  A
C246        H262   1.083       .  S
C247        C257   1.404       .  A
C247        C248   1.413       .  A
C248        C254   1.412       .  A
C248        C249   1.410       .  A
C249        C251   1.411       .  A
C249        C250   1.413       .  A
C250        C258   1.406       .  A
C251        C260   1.397       .  A
C251        C252   1.402       .  A
C252        C253   1.396       .  A
C252        H263   1.084       .  S
C253        C254   1.402       .  A
C253        H264   1.084       .  S
C254        C255   1.397       .  A
C255        C256   1.402       .  A
C255        H265   1.085       .  S
C256        C257   1.402       .  A
C257        H266   1.084       .  S
C258        C259   1.406       .  A
C258        H267   1.084       .  S
C259        C260   1.403       .  A
C260        H268   1.085       .  S
C269        C270   1.401       .  A
C269        C274   1.404       .  A
C269        H285   1.083       .  S
C270        C271   1.404       .  A
C270        H286   1.084       .  S
C271        C281   1.404       .  A
C271        C272   1.412       .  A
C272        C278   1.412       .  A
C272        C273   1.409       .  A
C273        C275   1.411       .  A
C273        C274   1.413       .  A
C274        C282   1.405       .  A
C275        C284   1.395       .  A
C275        C276   1.402       .  A
C276        C277   1.395       .  A
C276        H287   1.084       .  S
C277        C278   1.402       .  A
C277        H288   1.084       .  S
C278        C279   1.397       .  A
C279        C280   1.402       .  A
C279        H289   1.085       .  S
C280        C281   1.405       .  A
C281        H290   1.084       .  S
C282        C283   1.406       .  A
C282        H291   1.084       .  S
C283        C284   1.403       .  A
C284        H292   1.085       .  S
C293        C294   1.397       .  A
C293        C298   1.403       .  A
C293        H309   1.084       .  S
C294        C295   1.402       .  A
C294        H310   1.084       .  S
C295        C305   1.400       .  A
C295        C296   1.413       .  A
C296        C302   1.412       .  A
C296        C297   1.410       .  A
C297        C299   1.413       .  A
C297        C298   1.411       .  A
C298        C306   1.399       .  A
C299        C308   1.404       .  A
C299        C300   1.404       .  A
C300        C301   1.399       .  A
C300        H311   1.084       .  S
C301        C302   1.403       .  A
C301        H312   1.084       .  S
C302        C303   1.401       .  A
C303        C304   1.403       .  A
C303        H313   1.084       .  S
C304        C305   1.402       .  A
C305        H314   1.085       .  S
C306        C307   1.403       .  A
C306        H315   1.085       .  S
C307        C308   1.404       .  A
C308        H316   1.084       .  S
C317        C318   1.400       .  A
C317        C322   1.404       .  A
C317        H333   1.084       .  S
C318        C319   1.404       .  A
C318        H334   1.083       .  S
C319        C329   1.405       .  A
C319        C320   1.413       .  A
C320        C326   1.411       .  A
C320        C321   1.410       .  A
C321        C323   1.412       .  A
C321        C322   1.412       .  A
C322        C330   1.403       .  A
C323        C332   1.399       .  A
C323        C324   1.402       .  A
C324        C325   1.396       .  A
C324        H335   1.084       .  S
C325        C326   1.402       .  A
C325        H336   1.084       .  S
C326        C327   1.397       .  A
C327        C328   1.404   1_565  A
C327        H337   1.085       .  S
C328        C329   1.404   1_545  A
C329        H338   1.084   1_565  S
C330        C331   1.405       .  A
C330        H339   1.084       .  S
C331        C332   1.404       .  A
C332        H340   1.084       .  S
C341        C342   1.396       .  A
C341        C346   1.402       .  A
C341        H357   1.084       .  S
C342        C343   1.402   1_565  A
C342        H358   1.084       .  S
C343        C353   1.398       .  A
C343        C344   1.412       .  A
C344        C350   1.413       .  A
C344        C345   1.412   1_545  A
C345        C347   1.413       .  A
C345        C346   1.411       .  A
C346        C354   1.398       .  A
C347        C356   1.409       .  A
C347        C348   1.405   1_565  A
C348        C349   1.403       .  A
C348        H359   1.083       .  S
C349        C350   1.405       .  A
C349        H360   1.083       .  S
C350        C351   1.408       .  A
C351        C352   1.405       .  A
C351        H361   1.084       .  S
C352        C353   1.402       .  A
C353        H362   1.085       .  S
C354        C355   1.404       .  A
C354        H363   1.085       .  S
C355        C356   1.408       .  A
C356        H364   1.084       .  S
