geometry optimzed in LAMMPS
_audit_creation_date              2020-12-01 
_audit_creation_method            'lammps2cif' 
_symmetry_space_group_name_H-M    'P1' 
_symmetry_Int_Tables_number       1 
_symmetry_cell_setting            triclinic 
loop_ 
_symmetry_equiv_pos_as_xyz 
  x,y,z 
_cell_length_a                    29.31439991 
_cell_length_b                    29.65703475075983 
_cell_length_c                    36.180139472018276 
_cell_angle_alpha                 88.29622056247105 
_cell_angle_beta                  89.65830020095702 
_cell_angle_gamma                 89.78630056193465 
loop_ 
_atom_site_label 
_atom_site_type_symbol 
_atom_site_fract_x 
_atom_site_fract_y 
_atom_site_fract_z 
_atom_site_charge 
C1          C  0.46993203  0.53359953  0.64541632     0.03500
C2          C  0.46787538  0.52697629  0.60712414    -0.12700
C3          C  0.49327196  0.49258970  0.59050993     0.01000
C4          C  0.52154124  0.46492925  0.61286258    -0.11200
C5          C  0.52569920  0.47181069  0.65103028     0.03500
C6          C  0.49889415  0.50577119  0.66719735    -0.10600
H7          H  0.44660961  0.54906747  0.59017840     0.09100
H8          H  0.53994623  0.43744947  0.60047875     0.06600
H9          H  0.50150251  0.51149636  0.69653693     0.06400
C10         C  0.45975897  0.46043479  0.37181405     0.03500
C11         C  0.48980680  0.48983723  0.35260834    -0.12700
C12         C  0.52157964  0.51618794  0.37136693     0.01000
C13         C  0.52216204  0.51347254  0.41024290    -0.11200
C14         C  0.49234376  0.48439075  0.43010037     0.03500
C15         C  0.46139747  0.45793384  0.41064326    -0.10600
H16         H  0.48859191  0.49199581  0.32273965     0.09100
H17         H  0.54599857  0.53388825  0.42513497     0.06600
H18         H  0.43819990  0.43575781  0.42582338     0.06400
N19         N  0.22496849  0.82441350  0.77908172    -0.26900
N20         N  0.24105385  0.86609335  0.77990046    -0.34800
C21         C  0.21067236  0.89324229  0.79566005     0.01400
C22         C  0.17269624  0.86879124  0.80594918     0.07400
C23         C  0.18253464  0.82493590  0.79467245    -0.05700
H24         H  0.21658702  0.92865427  0.80012208     0.08100
H25         H  0.16130008  0.79546479  0.79892268     0.09300
Cu26       Cu  0.30442528  0.88982408  0.76516203     0.44200
Cu27       Cu  0.26546917  0.76964960  0.75854789     0.42000
Cu28       Cu  0.38262854  0.81037078  0.74922664     0.43900
N29         N  0.37164328  0.90741354  0.75886930    -0.34300
N30         N  0.40206877  0.87572450  0.75318670    -0.28600
C31         C  0.44361287  0.89406487  0.75005426    -0.04700
C32         C  0.43918571  0.94003972  0.75455406     0.07500
C33         C  0.39283259  0.94737905  0.75995570     0.01300
H34         H  0.47424662  0.87518055  0.74408256     0.09000
H35         H  0.37582349  0.97913441  0.76470995     0.08100
N36         N  0.36300046  0.74725206  0.73602099    -0.35800
N37         N  0.32149146  0.72996657  0.73827725    -0.28000
C38         C  0.32392923  0.68772198  0.72461838    -0.03200
C39         C  0.36890689  0.67940955  0.71311766     0.05400
C40         C  0.39201306  0.71806346  0.72099446     0.03500
H41         H  0.29510467  0.66541413  0.72196860     0.08600
H42         H  0.42768805  0.72502350  0.71558274     0.07500
N43         N  0.78775547  0.18672116  0.76297428    -0.26900
N44         N  0.77373265  0.14664028  0.75282539    -0.34800
C45         C  0.80261077  0.11467776  0.76506836     0.01400
C46         C  0.83742154  0.13433562  0.78432826     0.07400
C47         C  0.82695804  0.18054956  0.78229992    -0.05700
H48         H  0.79606003  0.07901389  0.76281434     0.08100
H49         H  0.84526650  0.20746909  0.79509144     0.09300
Cu50       Cu  0.71056840  0.13055338  0.73349925     0.44200
Cu51       Cu  0.74692684  0.24549621  0.75370006     0.42000
Cu52       Cu  0.63129214  0.20589868  0.76557799     0.43900
N53         N  0.64407223  0.11194601  0.74219620    -0.34300
N54         N  0.61443251  0.14058866  0.75580851    -0.28600
C55         C  0.57406761  0.12019754  0.76046730    -0.04700
C56         C  0.57874240  0.07620033  0.74948283     0.07500
C57         C  0.62378467  0.07184001  0.73843908     0.01300
H58         H  0.54393890  0.13617801  0.77153959     0.09000
H59         H  0.64049870  0.04195810  0.72841502     0.08100
N60         N  0.64736479  0.27193208  0.75491825    -0.35800
N61         N  0.68849839  0.28774716  0.74707009    -0.28000
C62         C  0.68341749  0.33047657  0.73319048    -0.03200
C63         C  0.63693667  0.34155088  0.73309753     0.05400
C64         C  0.61573507  0.30326734  0.74697951     0.03500
H65         H  0.71106340  0.35121119  0.72250955     0.08600
H66         H  0.57946864  0.29675850  0.74782100     0.07500
C67         C  0.01372941  0.03300638  0.15321405     0.03500
C68         C  0.01390707  0.03482209  0.11417812    -0.12700
C69         C  0.98842531  0.00380185  0.09380521     0.01000
C70         C  0.96166758  0.97163457  0.11333649    -0.11200
C71         C  0.95995726  0.96995613  0.15212730     0.03500
C72         C  0.98648177  0.00037575  0.17176040    -0.10600
H73         H  0.03324298  0.06101486  0.09983524     0.09100
H74         H  0.94290783  0.94671974  0.09833997     0.06600
H75         H  0.98614577  0.99830962  0.20167472     0.06400
C76         C  0.96368169  0.02197063  0.87163349     0.03500
C77         C  0.96118408  0.02303819  0.91052275    -0.12700
C78         C  0.99049859  0.99639235  0.93281259     0.01000
C79         C  0.02234855  0.96804593  0.91590750    -0.11200
C80         C  0.02549369  0.96610481  0.87723056     0.03500
C81         C  0.99609072  0.99314321  0.85526743    -0.10600
H82         H  0.93676089  0.04509306  0.92354324     0.09100
H83         H  0.04505887  0.94752096  0.93297905     0.06600
H84         H  0.99983220  0.99301480  0.82547434     0.06400
N85         N  0.17512470  0.20750054  0.25627898    -0.26900
N86         N  0.13409092  0.22250925  0.26514453    -0.34800
C87         C  0.10237354  0.19327073  0.25472719     0.01400
C88         C  0.12328313  0.15766570  0.23757559     0.07400
C89         C  0.16989984  0.16767758  0.23927922    -0.05700
H90         H  0.06616167  0.20022965  0.25592477     0.08100
H91         H  0.19769966  0.14871127  0.22749895     0.09300
Cu92       Cu  0.11764749  0.28771561  0.27767372     0.44200
Cu93       Cu  0.23382231  0.24775309  0.26427197     0.42000
Cu94       Cu  0.19713274  0.36340152  0.24327459     0.43900
N95         N  0.09993188  0.35292483  0.26282250    -0.34300
N96         N  0.12975713  0.38093257  0.24748020    -0.28600
C97         C  0.10877464  0.41980371  0.23788236    -0.04700
C98         C  0.06323119  0.41584290  0.24763970     0.07500
C99         C  0.05877353  0.37282325  0.26317905     0.01300
H100        H  0.12551756  0.44879665  0.22510966     0.09000
H101        H  0.02778677  0.35653340  0.27282333     0.08100
N102        N  0.26026640  0.34619161  0.26310491    -0.35800
N103        N  0.27467451  0.30538279  0.27311892    -0.28000
C104        C  0.31463682  0.30995325  0.29134411    -0.03200
C105        C  0.32523508  0.35593047  0.29277220     0.05400
C106        C  0.28960972  0.37715069  0.27441231     0.03500
H107        H  0.33360008  0.28201875  0.30353901     0.08600
H108        H  0.28316546  0.41300739  0.27173347     0.07500
N109        N  0.71916865  0.66612701  0.27403008    -0.26900
N110        N  0.73095628  0.62427265  0.26650708    -0.34800
C111        C  0.69891653  0.59559678  0.27867822     0.01400
C112        C  0.66420089  0.61935329  0.29509148     0.07400
C113        C  0.67827278  0.66442305  0.29192904    -0.05700
H114        H  0.70180158  0.55938541  0.27665110     0.08100
H115        H  0.66006190  0.69365076  0.30153370     0.09300
Cu116      Cu  0.79034209  0.60190641  0.24332230     0.44200
Cu117      Cu  0.76150943  0.72158658  0.25771955     0.42000
Cu118      Cu  0.86772227  0.67822060  0.21387102     0.43900
N119        N  0.85399647  0.58134474  0.22750519    -0.34300
N120        N  0.88408878  0.61115227  0.21546753    -0.28600
C121        C  0.92470041  0.59087126  0.21133573    -0.04700
C122        C  0.91972573  0.54583363  0.22160997     0.07500
C123        C  0.87436775  0.54098400  0.23180979     0.01300
H124        H  0.95609490  0.60839953  0.20461933     0.09000
H125        H  0.85810030  0.51113898  0.24358783     0.08100
N126        N  0.85133461  0.74490116  0.21862496    -0.35800
N127        N  0.81415644  0.76243478  0.23359062    -0.28000
C128        C  0.81763088  0.80800137  0.23033184    -0.03200
C129        C  0.85909073  0.81857859  0.21311492     0.05400
C130        C  0.87908586  0.77777704  0.20627693     0.03500
H131        H  0.79237872  0.83157683  0.24011926     0.08600
H132        H  0.91165214  0.77221219  0.19288730     0.07500
C133        C  0.02686828  0.44961617  0.24143337    -0.05100
C134        C  0.02861238  0.47859381  0.21005670    -0.32500
C135        C  0.99390406  0.51019043  0.20319247     0.36700
C136        C  0.95653841  0.51261844  0.22765684    -0.05500
C137        C  0.95502163  0.48392127  0.25914722    -0.32400
C138        C  0.99008938  0.45307380  0.26641470     0.36600
H139        H  0.05653586  0.47628910  0.19044921     0.17000
O140        O  0.99571796  0.53704304  0.17168127    -0.59900
H141        H  0.92714994  0.48622962  0.27880556     0.17000
O142        O  0.98858205  0.42736790  0.29853569    -0.60000
H143        H  0.00737487  0.44387230  0.31635854     0.44000
H144        H  0.01881734  0.56040755  0.17668353     0.44000
C145        C  0.04234708  0.06457251  0.17485922    -0.05100
C146        C  0.08791600  0.07353373  0.16444952    -0.32500
C147        C  0.11548408  0.10240643  0.18498083     0.36700
C148        C  0.09797162  0.12257103  0.21699822    -0.05500
C149        C  0.05267401  0.11280858  0.22757852    -0.32400
C150        C  0.02486102  0.08524309  0.20661245     0.36600
H151        H  0.10230004  0.05809388  0.14022994     0.17000
O152        O  0.15896264  0.11138253  0.17283038    -0.59900
H153        H  0.03799119  0.12754887  0.25196807     0.17000
O154        O  0.98006090  0.07995603  0.21697801    -0.60000
H155        H  0.96289783  0.10228227  0.20150522     0.44000
H156        H  0.15628854  0.13910696  0.15695813     0.44000
C157        C  0.93158609  0.93500442  0.17179091    -0.05100
C158        C  0.88646501  0.92729386  0.16038557    -0.32500
C159        C  0.86076984  0.89146262  0.17582792     0.36700
C160        C  0.88011860  0.86251939  0.20297432    -0.05500
C161        C  0.92448870  0.87110580  0.21529593    -0.32400
C162        C  0.95010656  0.90693905  0.20011769     0.36600
H163        H  0.87156301  0.94834401  0.13861357     0.17000
O164        O  0.81845203  0.88265478  0.16187862    -0.59900
H165        H  0.94017986  0.84851713  0.23564393     0.17000
O166        O  0.99413719  0.91247509  0.21173300    -0.60000
H167        H  0.01332385  0.89619459  0.19377703     0.44000
H168        H  0.79679161  0.89919710  0.17773160     0.44000
C169        C  0.98921817  0.00418603  0.05227044    -0.05100
C170        C  0.94890196  0.99496881  0.03279653    -0.32500
C171        C  0.94880080  0.99242053  0.99412124     0.36700
C172        C  0.98936679  0.99937321  0.97382031    -0.05500
C173        C  0.02962651  0.00868122  0.99296408    -0.32400
C174        C  0.02986052  0.01126419  0.03167875     0.36600
H175        H  0.91707857  0.98951269  0.04758280     0.17000
O176        O  0.90939107  0.98073302  0.97657135    -0.59900
H177        H  0.06124460  0.01385838  0.97777811     0.17000
O178        O  0.07056588  0.01810785  0.04911767    -0.60000
H179        H  0.07852536  0.05006770  0.04344900     0.44000
H180        H  0.89016857  0.00832089  0.97618141     0.44000
C181        C  0.93308809  0.05170684  0.84836050    -0.05100
C182        C  0.92495538  0.09688274  0.85774935    -0.32500
C183        C  0.89537044  0.12497419  0.83676601     0.36700
C184        C  0.87310548  0.10822311  0.80555590    -0.05500
C185        C  0.88235883  0.06339525  0.79581415    -0.32400
C186        C  0.91105467  0.03523085  0.81704458     0.36600
H187        H  0.94151332  0.11057246  0.88161199     0.17000
O188        O  0.88702143  0.16788642  0.84816198    -0.59900
H189        H  0.86657476  0.04931715  0.77181236     0.17000
O190        O  0.91600897  0.99106432  0.80746888    -0.60000
H191        H  0.89037565  0.97486224  0.81989601     0.44000
H192        H  0.91302337  0.18609964  0.83847937     0.44000
C193        C  0.06234082  0.93865185  0.86020079    -0.05100
C194        C  0.05231820  0.90376524  0.83594861    -0.32500
C195        C  0.08757272  0.87823059  0.81974034     0.36700
C196        C  0.13360404  0.88822847  0.82701822    -0.05500
C197        C  0.14306731  0.92233965  0.85210504    -0.32400
C198        C  0.10821932  0.94726661  0.86849453     0.36600
H199        H  0.01713002  0.89647719  0.82945342     0.17000
O200        O  0.07671739  0.84560175  0.79527384    -0.59900
H201        H  0.17802675  0.93065515  0.85853125     0.17000
O202        O  0.11949847  0.98202173  0.89089311    -0.60000
H203        H  0.12752090  0.96747586  0.91503646     0.44000
H204        H  0.06973845  0.81838299  0.81085029     0.44000
C205        C  0.47562644  0.97425319  0.75304825    -0.05100
C206        C  0.46455047  0.01880901  0.74244094    -0.32500
C207        C  0.49785090  0.05228969  0.74112925     0.36700
C208        C  0.54327702  0.04133762  0.75004408    -0.05500
C209        C  0.55471312  0.99675493  0.76008376    -0.32400
C210        C  0.52124540  0.96337177  0.76208689     0.36600
H211        H  0.43001914  0.02783023  0.73465967     0.17000
O212        O  0.48608219  0.09512716  0.72929628    -0.59900
H213        H  0.58949524  0.98798071  0.76738925     0.17000
O214        O  0.53351205  0.92064292  0.77374141    -0.60000
H215        H  0.52932050  0.92009047  0.80097013     0.44000
H216        H  0.46852708  0.10799064  0.75003189     0.44000
C217        C  0.42638919  0.43283332  0.35117029    -0.05100
C218        C  0.41948713  0.38695001  0.36074749    -0.32500
C219        C  0.38769208  0.36081616  0.34176421     0.36700
C220        C  0.36244740  0.38022982  0.31216522    -0.05500
C221        C  0.37052831  0.42582864  0.30222568    -0.32400
C222        C  0.40104667  0.45208456  0.32170383     0.36600
H223        H  0.43872763  0.37124960  0.38315744     0.17000
O224        O  0.38129175  0.31671996  0.35288256    -0.59900
H225        H  0.35258387  0.44201141  0.27939253     0.17000
O226        O  0.40476925  0.49704349  0.31212911    -0.60000
H227        H  0.38496149  0.51285500  0.32993208     0.44000
H228        H  0.35787889  0.31762815  0.37275309     0.44000
C229        C  0.55520227  0.54507979  0.35024370    -0.05100
C230        C  0.56663312  0.58853561  0.36207459    -0.32500
C231        C  0.60027524  0.61470168  0.34349607     0.36700
C232        C  0.62316245  0.59755638  0.31250835    -0.05500
C233        C  0.60985357  0.55522935  0.29979048    -0.32400
C234        C  0.57743730  0.52883047  0.31859354     0.36600
H235        H  0.54991712  0.60207435  0.38612864     0.17000
O236        O  0.61228109  0.65555116  0.35720853    -0.59900
H237        H  0.62591147  0.54134106  0.27560920     0.17000
O238        O  0.56960135  0.48612288  0.30657375    -0.60000
H239        H  0.58903343  0.46603120  0.32227986     0.44000
H240        H  0.58792489  0.67678602  0.34894433     0.44000
C241        C  0.55714436  0.44257859  0.67390451    -0.05100
C242        C  0.54235463  0.42497634  0.70835681    -0.32500
C243        C  0.56941869  0.39439783  0.72897291     0.36700
C244        C  0.61232245  0.38046311  0.71529391    -0.05500
C245        C  0.62852170  0.40021473  0.68206966    -0.34400
C246        C  0.60139261  0.43090695  0.66138379     0.36600
H247        H  0.50896283  0.43379795  0.71896385     0.17000
O248        O  0.55394835  0.37879822  0.76287892    -0.59900
H249        H  0.66152652  0.39047109  0.67123685     0.17000
O250        O  0.61886829  0.45016565  0.62939597    -0.60000
H251        H  0.62139672  0.42530620  0.61173089     0.44000
H252        H  0.52692952  0.35997935  0.75776083     0.44000
C253        C  0.44261468  0.57055567  0.66219366    -0.05100
C254        C  0.41285924  0.56134688  0.69218607    -0.32500
C255        C  0.38637703  0.59585400  0.70776728     0.36700
C256        C  0.39020656  0.64062298  0.69406329    -0.05500
C257        C  0.42009058  0.64968376  0.66419546    -0.32400
C258        C  0.44559054  0.61525483  0.64804128     0.36600
H259        H  0.41004302  0.52722897  0.70348693     0.17000
O260        O  0.35900223  0.58590459  0.73771736    -0.59900
H261        H  0.42419753  0.68397113  0.65352647     0.17000
O262        O  0.47529140  0.62607867  0.61970286    -0.60000
H263        H  0.45582874  0.63247487  0.59781547     0.44000
H264        H  0.32910639  0.57779125  0.72714462     0.44000
C265        C  0.49205227  0.48691568  0.54957672    -0.05100
C266        C  0.53287104  0.47931746  0.52998353    -0.32500
C267        C  0.53326822  0.47711719  0.49128878     0.36700
C268        C  0.49247188  0.48287425  0.47127327    -0.05500
C269        C  0.45139852  0.48838318  0.49084289    -0.32400
C270        C  0.45087320  0.49000200  0.52953491     0.36600
H271        H  0.56492036  0.47608840  0.54458875     0.17000
O272        O  0.57344931  0.46792120  0.47331195    -0.59900
H273        H  0.41955783  0.49222816  0.47600406     0.17000
O274        O  0.40979071  0.49448156  0.54740014    -0.60000
H275        H  0.40066922  0.46331410  0.55477729     0.44000
H276        H  0.59195510  0.49572822  0.47478786     0.44000
loop_ 
_geom_bond_atom_site_label_1 
_geom_bond_atom_site_label_2 
_geom_bond_distance 
_geom_bond_site_symmetry_2 
_ccdc_geom_bond_type 
C1            C2   1.407       .  A
C1            C6   1.410       .  A
C1          C253   1.496       .  S
C2            C3   1.407       .  A
C2            H7   1.082       .  S
C3            C4   1.406       .  A
C3          C265   1.496       .  S
C4            C5   1.408       .  A
C4            H8   1.082       .  S
C5            C6   1.413       .  A
C5          C241   1.499       .  S
C6            H9   1.083       .  S
C10          C11   1.408       .  A
C10          C15   1.406       .  A
C10         C217   1.495       .  S
C11          C12   1.408       .  A
C11          H16   1.081       .  S
C12          C13   1.407       .  A
C12         C229   1.499       .  S
C13          C14   1.409       .  A
C13          H17   1.083       .  S
C14          C15   1.407       .  A
C14         C268   1.489       .  S
C15          H18   1.084       .  S
N19          N20   1.326       .  A
N19          C23   1.363       .  A
N19         Cu27   2.155       .  S
N20          C21   1.335       .  A
N20         Cu26   2.051       .  S
C21          C22   1.374       .  A
C21          H24   1.082       .  S
C22          C23   1.403       .  A
C22         C196   1.496       .  S
C23          H25   1.082       .  S
Cu26         N29   2.050       .  S
Cu27         N37   2.155       .  S
Cu28         N30   2.032       .  S
Cu28         N36   2.032       .  S
N29          N30   1.313       .  A
N29          C33   1.342       .  A
N30          C31   1.338       .  A
C31          C32   1.383       .  A
C31          H34   1.081       .  S
C32          C33   1.389       .  A
C32         C205   1.476       .  S
C33          H35   1.082       .  S
N36          N37   1.323       .  A
N36          C40   1.336       .  A
N37          C38   1.362       .  A
C38          C39   1.403       .  A
C38          H41   1.082       .  S
C39          C40   1.372       .  A
C39         C256   1.492       .  S
C40          H42   1.082       .  S
N43          N44   1.322       .  A
N43          C47   1.358       .  A
N43         Cu51   2.130       .  S
N44          C45   1.336       .  A
N44         Cu50   2.046       .  S
C45          C46   1.380       .  A
C45          H48   1.081       .  S
C46          C47   1.403       .  A
C46         C184   1.501       .  S
C47          H49   1.081       .  S
Cu50         N53   2.048       .  S
Cu51         N61   2.129       .  S
Cu52         N54   2.042       .  S
Cu52         N60   2.041       .  S
N53          N54   1.317       .  A
N53          C57   1.343       .  A
N54          C55   1.338       .  A
C55          C56   1.381       .  A
C55          H58   1.081       .  S
C56          C57   1.384       .  A
C56         C208   1.469       .  S
C57          H59   1.082       .  S
N60          N61   1.322       .  A
N60          C64   1.337       .  A
N61          C62   1.357       .  A
C62          C63   1.400       .  A
C62          H65   1.082       .  S
C63          C64   1.377       .  A
C63         C244   1.491       .  S
C64          H66   1.081       .  S
C67          C68   1.412       .  A
C67          C72   1.409   1_455  A
C67         C145   1.500       .  S
C68          C69   1.414   1_455  A
C68          H73   1.082       .  S
C69          C70   1.408   1_545  A
C69         C169   1.502       .  S
C70          C71   1.403       .  A
C70          H74   1.083       .  S
C71          C72   1.405   1_565  A
C71         C157   1.493       .  S
C72          H75   1.082   1_545  S
C76          C77   1.410       .  A
C76          C81   1.415   1_545  A
C76         C181   1.500       .  S
C77          C78   1.407   1_545  A
C77          H82   1.083       .  S
C78          C79   1.404   1_655  A
C78         C172   1.489       .  S
C79          C80   1.405       .  A
C79          H83   1.084       .  S
C80          C81   1.408   1_455  A
C80         C193   1.491       .  S
C81          H84   1.083       .  S
N85          N86   1.322       .  A
N85          C89   1.357       .  A
N85         Cu93   2.124       .  S
N86          C87   1.337       .  A
N86         Cu92   2.054       .  S
C87          C88   1.380       .  A
C87          H90   1.082       .  S
C88          C89   1.402       .  A
C88         C148   1.499       .  S
C89          H91   1.081       .  S
Cu92         N95   2.057       .  S
Cu93        N103   2.124       .  S
Cu94         N96   2.046       .  S
Cu94        N102   2.046       .  S
N95          N96   1.317       .  A
N95          C99   1.341       .  A
N96          C97   1.342       .  A
C97          C98   1.383       .  A
C97         H100   1.082       .  S
C98          C99   1.385       .  A
C98         C133   1.474       .  S
C99         H101   1.082       .  S
N102        N103   1.321       .  A
N102        C106   1.335       .  A
N103        C104   1.357       .  A
C104        C105   1.402       .  A
C104        H107   1.081       .  S
C105        C106   1.381       .  A
C105        C220   1.499       .  S
C106        H108   1.081       .  S
N109        N110   1.323       .  A
N109        C113   1.360       .  A
N109       Cu117   2.131       .  S
N110        C111   1.333       .  A
N110       Cu116   2.045       .  S
C111        C112   1.377       .  A
C111        H114   1.082       .  S
C112        C113   1.402       .  A
C112        C232   1.495       .  S
C113        H115   1.081       .  S
Cu116       N119   2.045       .  S
Cu117       N127   2.132       .  S
Cu118       N120   2.044       .  S
Cu118       N126   2.045       .  S
N119        N120   1.314       .  A
N119        C123   1.341       .  A
N120        C121   1.341       .  A
C121        C122   1.384       .  A
C121        H124   1.081       .  S
C122        C123   1.385       .  A
C122        C136   1.471       .  S
C123        H125   1.082       .  S
N126        N127   1.325       .  A
N126        C130   1.337       .  A
N127        C128   1.357       .  A
C128        C129   1.395       .  A
C128        H131   1.082       .  S
C129        C130   1.371       .  A
C129        C160   1.479       .  S
C130        H132   1.082       .  S
C133        C134   1.404       .  A
C133        C138   1.408   1_455  A
C134        C135   1.399   1_455  A
C134        H139   1.083       .  S
C135        C136   1.407       .  A
C135        O140   1.372       .  S
C136        C137   1.402       .  A
C137        C138   1.395       .  A
C137        H141   1.083       .  S
C138        O142   1.371       .  S
O140        H144   0.992   1_655  S
O142        H143   0.992   1_655  S
C145        C146   1.410       .  A
C145        C150   1.411       .  A
C146        C147   1.410       .  A
C146        H151   1.083       .  S
C147        C148   1.412       .  A
C147        O152   1.370       .  S
C148        C149   1.408       .  A
C149        C150   1.399       .  A
C149        H153   1.083       .  S
C150        O154   1.372   1_455  S
O152        H156   0.992       .  S
O154        H155   0.992       .  S
C157        C158   1.409       .  A
C157        C162   1.411       .  A
C158        C159   1.405       .  A
C158        H163   1.083       .  S
C159        C160   1.406       .  A
C159        O164   1.371       .  S
C160        C161   1.404       .  A
C161        C162   1.400       .  A
C161        H165   1.084       .  S
C162        O166   1.372       .  S
O164        H168   0.991       .  S
O166        H167   0.992   1_655  S
C169        C170   1.411   1_545  A
C169        C174   1.414   1_655  A
C170        C171   1.404   1_554  A
C170        H175   1.083       .  S
C171        C172   1.407       .  A
C171        O176   1.372       .  S
C172        C173   1.404   1_665  A
C173        C174   1.405   1_556  A
C173        H177   1.084       .  S
C174        O178   1.372       .  S
O176        H180   0.992   1_565  S
O178        H179   0.992       .  S
C181        C182   1.411       .  A
C181        C186   1.408       .  A
C182        C183   1.410       .  A
C182        H187   1.083       .  S
C183        C184   1.412       .  A
C183        O188   1.370       .  S
C184        C185   1.410       .  A
C185        C186   1.400       .  A
C185        H189   1.082       .  S
C186        O190   1.372   1_545  S
O188        H192   0.992       .  S
O190        H191   0.992       .  S
C193        C194   1.409       .  A
C193        C198   1.406       .  A
C194        C195   1.414       .  A
C194        H199   1.083       .  S
C195        C196   1.411       .  A
C195        O200   1.370       .  S
C196        C197   1.409       .  A
C197        C198   1.398       .  A
C197        H201   1.083       .  S
C198        O202   1.373       .  S
O200        H204   0.992       .  S
O202        H203   0.992       .  S
C205        C206   1.402   1_565  A
C205        C210   1.413       .  A
C206        C207   1.395       .  A
C206        H211   1.083       .  S
C207        C208   1.407       .  A
C207        O212   1.372       .  S
C208        C209   1.401   1_545  A
C209        C210   1.396       .  A
C209        H213   1.084       .  S
C210        O214   1.371       .  S
O212        H216   0.992       .  S
O214        H215   0.992       .  S
C217        C218   1.409       .  A
C217        C222   1.409       .  A
C218        C219   1.409       .  A
C218        H223   1.083       .  S
C219        C220   1.413       .  A
C219        O224   1.370       .  S
C220        C221   1.409       .  A
C221        C222   1.396       .  A
C221        H225   1.081       .  S
C222        O226   1.372       .  S
O224        H228   0.992       .  S
O226        H227   0.992       .  S
C229        C230   1.412       .  A
C229        C234   1.411       .  A
C230        C231   1.412       .  A
C230        H235   1.083       .  S
C231        C232   1.410       .  A
C231        O236   1.371       .  S
C232        C233   1.407       .  A
C233        C234   1.395       .  A
C233        H237   1.082       .  S
C234        O238   1.372       .  S
O236        H240   0.992       .  S
O238        H239   0.992       .  S
C241        C242   1.404       .  A
C241        C246   1.417       .  A
C242        C243   1.403       .  A
C242        H247   1.083       .  S
C243        C244   1.414       .  A
C243        O248   1.373       .  S
C244        C245   1.402       .  A
C245        C246   1.408       .  A
C245        H249   1.083       .  S
C246        O250   1.373       .  S
O248        H252   0.992       .  S
O250        H251   0.992       .  S
C253        C254   1.409       .  A
C253        C258   1.410       .  A
C254        C255   1.411       .  A
C254        H259   1.083       .  S
C255        C256   1.408       .  A
C255        O260   1.370       .  S
C256        C257   1.407       .  A
C257        C258   1.403       .  A
C257        H261   1.084       .  S
C258        O262   1.373       .  S
O260        H264   0.992       .  S
O262        H263   0.992       .  S
C265        C266   1.408       .  A
C265        C270   1.413       .  A
C266        C267   1.403       .  A
C266        H271   1.083       .  S
C267        C268   1.409       .  A
C267        O272   1.373       .  S
C268        C269   1.405       .  A
C269        C270   1.402       .  A
C269        H273   1.084       .  S
C270        O274   1.371       .  S
O272        H276   0.992       .  S
O274        H275   0.992       .  S
