geometry optimzed in LAMMPS
_audit_creation_date              2020-12-01 
_audit_creation_method            'lammps2cif' 
_symmetry_space_group_name_H-M    'P1' 
_symmetry_Int_Tables_number       1 
_symmetry_cell_setting            triclinic 
loop_ 
_symmetry_equiv_pos_as_xyz 
  x,y,z 
_cell_length_a                    25.44906989 
_cell_length_b                    25.460718670488568 
_cell_length_c                    25.437923948220476 
_cell_angle_alpha                 89.99916658690393 
_cell_angle_beta                  89.99453936117638 
_cell_angle_gamma                 89.99964505073798 
loop_ 
_atom_site_label 
_atom_site_type_symbol 
_atom_site_fract_x 
_atom_site_fract_y 
_atom_site_fract_z 
_atom_site_charge 
N1          N  0.61881707  0.56600010  0.91519359    -0.04300
N2          N  0.65113205  0.57255337  0.87511023    -0.56400
N3          N  0.58226884  0.60247438  0.03660380    -0.04000
N4          N  0.58854228  0.63433811  0.07708721    -0.58600
N5          N  0.61881183  0.56591002  0.03654592    -0.03600
N6          N  0.65076988  0.57206560  0.07697159    -0.56400
N7          N  0.58226805  0.60257153  0.91517770    -0.03300
N8          N  0.58890573  0.63483495  0.87506685    -0.58900
C9          C  0.63189179  0.61551455  0.85064596     0.97900
C10         C  0.63132686  0.61480022  0.10167060     0.97600
N11         N  0.42252618  0.56593947  0.03672511    -0.04500
N12         N  0.39093025  0.57193894  0.07747278    -0.57000
N13         N  0.45886266  0.60267435  0.91537797    -0.02600
N14         N  0.45239164  0.63492710  0.87524705    -0.58300
N15         N  0.42226370  0.56614525  0.91533616    -0.04500
N16         N  0.39007120  0.57274134  0.87515111    -0.57300
N17         N  0.45912925  0.60245328  0.03667815    -0.02300
N18         N  0.45326340  0.63410866  0.07737060    -0.58300
Mn19       Mn  0.52062402  0.60443530  0.97592197     1.18400
C20         C  0.41065303  0.61453891  0.10219986     0.99900
C21         C  0.40943436  0.61570318  0.85074628     1.00600
N22         N  0.61871930  0.44292701  0.03662787    -0.04500
N23         N  0.65032465  0.43712641  0.07738420    -0.60900
N24         N  0.58224630  0.40622843  0.91512178    -0.03300
N25         N  0.58858189  0.37429995  0.87469022    -0.61500
N26         N  0.61878083  0.44281043  0.91515255    -0.04100
N27         N  0.65078325  0.43659909  0.87476336    -0.61100
N28         N  0.58219612  0.40634321  0.03667426    -0.02900
N29         N  0.58813511  0.37482287  0.07748349    -0.61800
Mn30       Mn  0.62066649  0.50438681  0.97584776     1.10700
C31         C  0.63071054  0.39457563  0.10226450     1.01200
C32         C  0.63139001  0.39381839  0.85010791     1.01200
N33         N  0.42233081  0.44268652  0.91525132    -0.04100
N34         N  0.39045896  0.43641276  0.87475622    -0.59400
N35         N  0.45916385  0.40630600  0.03666133    -0.03400
N36         N  0.45349717  0.37482273  0.07751564    -0.56200
N37         N  0.42257583  0.44283277  0.03673921    -0.04700
N38         N  0.39119061  0.43701573  0.07767764    -0.59000
N39         N  0.45892305  0.40614958  0.91529519    -0.03700
N40         N  0.45276569  0.37421714  0.87485959    -0.56200
Mn41       Mn  0.42047001  0.50438336  0.97596702     1.20200
Mn42       Mn  0.52062941  0.40432352  0.97589862     1.10100
Cl43       Cl  0.52058064  0.50438684  0.97583702    -0.84200
C44         C  0.40999081  0.39362083  0.85018282     0.98200
C45         C  0.41101476  0.39450052  0.10247289     0.98000
N46         N  0.46180736  0.94362150  0.37754970    -0.04300
N47         N  0.45580730  0.90288935  0.34595301    -0.56400
N48         N  0.42525933  0.06512089  0.41415975    -0.04000
N49         N  0.39379576  0.10597170  0.40848317    -0.58600
N50         N  0.46179733  0.06516056  0.37755348    -0.03600
N51         N  0.45600848  0.10606639  0.34614448    -0.56400
N52         N  0.42525368  0.94368970  0.41414772    -0.03300
N53         N  0.39357697  0.90303170  0.40827899    -0.58900
C54         C  0.41316377  0.87818287  0.36567204     0.97900
C55         C  0.41349349  0.13089717  0.36597268     0.97600
N56         N  0.46172097  0.06517420  0.57382518    -0.04500
N57         N  0.45571755  0.10588417  0.60543934    -0.57000
N58         N  0.42516707  0.94379205  0.53732196    -0.02600
N59         N  0.39318602  0.90342470  0.54353839    -0.58300
N60         N  0.46171821  0.94376007  0.57391581    -0.04500
N61         N  0.45541557  0.90335183  0.60586009    -0.57300
N62         N  0.42517551  0.06511712  0.53723117    -0.02300
N63         N  0.39348935  0.10576799  0.54312295    -0.58300
Mn64       Mn  0.42329688  0.00441295  0.47569221     1.18400
C65         C  0.41307600  0.13058982  0.58574595     0.99900
C66         C  0.41260925  0.87878683  0.58634165     1.00600
N67         N  0.58488399  0.06510189  0.37749758    -0.04500
N68         N  0.59082482  0.10569055  0.34573837    -0.60900
N69         N  0.62167172  0.94388788  0.41400543    -0.03300
N70         N  0.65378050  0.90364498  0.40757277    -0.61500
N71         N  0.58509421  0.94388445  0.37742878    -0.04100
N72         N  0.59149594  0.90365528  0.34530102    -0.61100
N73         N  0.62144858  0.06518369  0.41408025    -0.02900
N74         N  0.65309071  0.10584759  0.40802602    -0.61800
Mn75       Mn  0.52337018  0.00441250  0.37556107     1.10700
C76         C  0.63344002  0.13049026  0.36531998     1.01200
C77         C  0.63438974  0.87915177  0.36465757     1.01200
N78         N  0.58507637  0.94394548  0.57405419    -0.04100
N79         N  0.59169392  0.90395600  0.60644019    -0.59400
N80         N  0.62150487  0.06516881  0.53738038    -0.03400
N81         N  0.65341814  0.10558329  0.54367948    -0.56200
N82         N  0.58490584  0.06513052  0.57393506    -0.04700
N83         N  0.59109135  0.10550627  0.60591895    -0.59000
N84         N  0.62168289  0.94393617  0.53749836    -0.03700
N85         N  0.65402759  0.90392799  0.54420419    -0.56200
Mn86       Mn  0.52333207  0.00447610  0.57583756     1.20200
Mn87       Mn  0.62349455  0.00451786  0.47572507     1.10100
Cl88       Cl  0.52339294  0.00441267  0.47570725    -0.84200
C89         C  0.63473426  0.87956962  0.58724517     0.98200
C90         C  0.63387903  0.13014212  0.58648926     0.98000
N91         N  0.96140640  0.56562511  0.37741468    -0.04300
N92         N  0.92107180  0.57171201  0.34533566    -0.56400
N93         N  0.08243877  0.60260544  0.41416715    -0.04000
N94         N  0.12288976  0.63454420  0.40827818    -0.58600
N95         N  0.08280031  0.56599580  0.37764848    -0.03600
N96         N  0.12351542  0.57224466  0.34605639    -0.56400
N97         N  0.96108720  0.60209115  0.41408105    -0.03300
N98         N  0.92054443  0.63383935  0.40773855    -0.58900
C99         C  0.89618081  0.61431717  0.36480934     0.97900
C100        C  0.14790180  0.61508261  0.36571781     0.97600
N101        N  0.08298344  0.56607670  0.57369399    -0.04500
N102        N  0.12353684  0.57253566  0.60543535    -0.57000
N103        N  0.96129227  0.60221539  0.53761682    -0.02600
N104        N  0.92112486  0.63434749  0.54440558    -0.58300
N105        N  0.96167041  0.56574743  0.57428372    -0.04500
N106        N  0.92175115  0.57222411  0.60681509    -0.57300
N107        N  0.08256312  0.60268794  0.53717799    -0.02300
N108        N  0.12281834  0.63484737  0.54322068    -0.58300
Mn109      Mn  0.02175338  0.60428823  0.47573768     1.18400
C110        C  0.14778505  0.61548511  0.58585536     0.99900
C111        C  0.89703387  0.61505044  0.58759600     1.00600
N112        N  0.08301439  0.44265744  0.37772488    -0.04500
N113        N  0.12399697  0.43676390  0.34640979    -0.60900
N114        N  0.96126723  0.40620973  0.41411691    -0.03300
N115        N  0.92055409  0.37462392  0.40799089    -0.61500
N116        N  0.96152466  0.44268178  0.37745448    -0.04100
N117        N  0.92098412  0.43676416  0.34560483    -0.61100
N118        N  0.08271827  0.40603729  0.41423191    -0.02900
N119        N  0.12348288  0.37444883  0.40861513    -0.61800
Mn120      Mn  0.02224748  0.50422167  0.37560758     1.10700
C121        C  0.14860987  0.39412480  0.36622325     1.01200
C122        C  0.89603895  0.39423935  0.36517925     1.01200
N123        N  0.96183836  0.44264960  0.57426933    -0.04100
N124        N  0.92169381  0.43638079  0.60655861    -0.59400
N125        N  0.08288297  0.40607562  0.53709595    -0.03400
N126        N  0.12359454  0.37442112  0.54272773    -0.56200
N127        N  0.08324315  0.44272261  0.57357710    -0.04700
N128        N  0.12421436  0.43678839  0.60488250    -0.59000
N129        N  0.96152663  0.40615106  0.53763445    -0.03700
N130        N  0.92117477  0.37420013  0.54421184    -0.56200
Mn131      Mn  0.02247982  0.50427437  0.57586965     1.20200
Mn132      Mn  0.02199595  0.40418327  0.47575503     1.10100
Cl133      Cl  0.02208681  0.50424491  0.47574575    -0.84200
C134        C  0.89692582  0.39362712  0.58725977     0.98200
C135        C  0.14876173  0.39410793  0.58508890     0.98000
C136        C  0.76216811  0.33217663  0.30257679     0.04900
C137        C  0.73915560  0.35481874  0.25795252    -0.11200
C138        C  0.69410160  0.33228305  0.23570796     0.02400
C139        C  0.67202293  0.28715689  0.25818990    -0.09700
C140        C  0.69501459  0.26450435  0.30279421     0.04900
C141        C  0.74003502  0.28706135  0.32500254    -0.09200
H142        H  0.75645769  0.38956536  0.24038359     0.10500
H143        H  0.63734540  0.26950818  0.24080879     0.08100
H144        H  0.75799895  0.26935350  0.35936234     0.07900
C145        C  0.76350079  0.67779812  0.30121585     0.04900
C146        C  0.74046870  0.65526732  0.25656253    -0.11200
C147        C  0.69565916  0.67809674  0.23415523     0.02400
C148        C  0.67384840  0.72343099  0.25648640    -0.09700
C149        C  0.69685124  0.74597012  0.30114818     0.04900
C150        C  0.74164998  0.72311793  0.32351124    -0.09200
H151        H  0.75750369  0.62030353  0.23916325     0.10500
H152        H  0.63928024  0.74123046  0.23904307     0.08100
H153        H  0.75957719  0.74066855  0.35796964     0.07900
C154        C  0.69585785  0.33055533  0.71761183     0.04900
C155        C  0.67361463  0.28563642  0.69487831    -0.11200
C156        C  0.69656521  0.26310580  0.65018320     0.02400
C157        C  0.74171921  0.28557791  0.62814517    -0.09700
C158        C  0.76400918  0.33049086  0.65082179     0.04900
C159        C  0.74105352  0.35298859  0.69554896    -0.09200
H160        H  0.63877174  0.26812041  0.71206468     0.10500
H161        H  0.75958945  0.26803454  0.59364957     0.08100
H162        H  0.75841313  0.38764175  0.71324020     0.07900
C163        C  0.34997221  0.74447275  0.30385313     0.04900
C164        C  0.30487278  0.72233001  0.32642445    -0.11200
C165        C  0.28197807  0.67757008  0.30397507     0.02400
C166        C  0.30427399  0.65490445  0.25903538    -0.09700
C167        C  0.34931624  0.67701659  0.23643207     0.04900
C168        C  0.37220682  0.72174129  0.25889541    -0.09200
H169        H  0.28743113  0.74009467  0.36101984     0.10500
H170        H  0.28637203  0.62046904  0.24144933     0.08100
H171        H  0.40688971  0.73905759  0.24119091     0.07900
C172        C  0.34838385  0.74621184  0.64947388     0.04900
C173        C  0.30364582  0.72375486  0.62653253    -0.11200
C174        C  0.28065544  0.67906902  0.64901004     0.02400
C175        C  0.30249851  0.65678013  0.69436480    -0.09700
C176        C  0.34720409  0.67919818  0.71734265     0.04900
C177        C  0.37016228  0.72388808  0.69485945    -0.09200
H178        H  0.28660854  0.74116545  0.59155709     0.10500
H179        H  0.28459133  0.62231507  0.71189011     0.08100
H180        H  0.40465190  0.74137918  0.71276246     0.07900
C181        C  0.34920845  0.33149472  0.71545482     0.04900
C182        C  0.30466546  0.35409133  0.69233880    -0.11200
C183        C  0.28285329  0.33187376  0.64693748     0.02400
C184        C  0.30575733  0.28712896  0.62449593    -0.09700
C185        C  0.35033490  0.26448925  0.64756605     0.04900
C186        C  0.37208147  0.28673633  0.69301031    -0.09200
H187        H  0.28673087  0.38851418  0.70991611     0.10500
H188        H  0.28864981  0.26968978  0.58956871     0.08100
H189        H  0.40636248  0.26902203  0.71109644     0.07900
C190        C  0.69762648  0.68012906  0.71945703     0.04900
C191        C  0.67565160  0.72527739  0.69691464    -0.11200
C192        C  0.69860051  0.74772524  0.65217367     0.02400
C193        C  0.74354535  0.72498721  0.62996628    -0.09700
C194        C  0.76556459  0.67984609  0.65246946     0.04900
C195        C  0.74259488  0.65743030  0.69722159    -0.09200
H196        H  0.64088441  0.74289857  0.71414669     0.10500
H197        H  0.76134203  0.74237807  0.59535511     0.08100
H198        H  0.75966338  0.62252052  0.71469199     0.07900
C199        C  0.35104228  0.26521141  0.30475520     0.04900
C200        C  0.37321287  0.28785947  0.25972319    -0.11200
C201        C  0.35038488  0.33264186  0.23730979     0.02400
C202        C  0.30547664  0.35489475  0.26004049    -0.09700
C203        C  0.28324180  0.33230332  0.30504734     0.04900
C204        C  0.30607866  0.28749445  0.32745323    -0.09200
H205        H  0.40775887  0.27040067  0.24188987     0.10500
H206        H  0.28758184  0.38933431  0.24245427     0.08100
H207        H  0.28864527  0.26975037  0.36206483     0.07900
C208        C  0.23609475  0.35418078  0.62429727    -0.11500
C209        C  0.19636947  0.37253908  0.60620383    -0.13000
C210        C  0.19479498  0.63775489  0.60758616    -0.11500
C211        C  0.23411788  0.65654777  0.62611509    -0.13000
C212        C  0.19528022  0.63696244  0.34437385    -0.11500
C213        C  0.23497500  0.65545292  0.32632551    -0.13000
C214        C  0.23619814  0.35437791  0.32734843    -0.11500
C215        C  0.19632412  0.37265869  0.34521175    -0.13000
C216        C  0.81183146  0.65665409  0.62968755    -0.11500
C217        C  0.85067483  0.63753186  0.61048789    -0.13000
C218        C  0.81076809  0.35310796  0.62846475    -0.11500
C219        C  0.85008020  0.37166087  0.60966113    -0.11900
C220        C  0.84869339  0.37277690  0.34334259    -0.11500
C221        C  0.80907167  0.35459344  0.32483123    -0.13000
C222        C  0.80999571  0.65487744  0.32377177    -0.11500
C223        C  0.84924278  0.63620096  0.34256192    -0.13000
C224        C  0.67422171  0.21647553  0.62736361    -0.11500
C225        C  0.65578388  0.17713354  0.60856592    -0.13000
C226        C  0.39145298  0.17802570  0.60720969    -0.11500
C227        C  0.37298496  0.21767497  0.62536362    -0.13000
C228        C  0.39207950  0.17854783  0.34476796    -0.11500
C229        C  0.37365110  0.21831738  0.32683511    -0.13000
C230        C  0.67299912  0.21752919  0.32520746    -0.11500
C231        C  0.65491407  0.17785850  0.34364539    -0.13000
C232        C  0.39042960  0.83187054  0.60836694    -0.11500
C233        C  0.37146225  0.79265170  0.62693386    -0.13000
C234        C  0.65726882  0.83314899  0.60992226    -0.11500
C235        C  0.67610717  0.79418491  0.62912559    -0.13000
C236        C  0.67480693  0.79286387  0.32373080    -0.11500
C237        C  0.65643799  0.83225980  0.34249371    -0.13000
C238        C  0.39143578  0.83079013  0.34419600    -0.11500
C239        C  0.37276835  0.79121053  0.32608333    -0.13000
C240        C  0.65244966  0.37305592  0.14964936    -0.11500
C241        C  0.67117108  0.35476761  0.18914086    -0.13000
C242        C  0.65351849  0.63681127  0.14860190    -0.11500
C243        C  0.67251180  0.65545247  0.18778793    -0.13000
C244        C  0.37132112  0.65450581  0.18946799    -0.11500
C245        C  0.38930216  0.63608947  0.14971284    -0.13000
C246        C  0.37221032  0.35497653  0.19017837    -0.11500
C247        C  0.38996367  0.37320713  0.15023543    -0.13000
C248        C  0.67415095  0.65722261  0.76554092    -0.11500
C249        C  0.65468844  0.63815489  0.80429667    -0.13000
C250        C  0.65365369  0.37177099  0.80320440    -0.11500
C251        C  0.67271575  0.35317023  0.76401795    -0.13000
C252        C  0.37076106  0.35362236  0.76283605    -0.11500
C253        C  0.38854083  0.37194287  0.80274211    -0.13000
C254        C  0.38741171  0.63793613  0.80383600    -0.11500
C255        C  0.36913973  0.65668579  0.76435854    -0.13000
loop_ 
_geom_bond_atom_site_label_1 
_geom_bond_atom_site_label_2 
_geom_bond_distance 
_geom_bond_site_symmetry_2 
_ccdc_geom_bond_type 
N1            N2   1.320       .  A
N1            N7   1.316       .  A
N1          Mn30   2.201       .  S
N2            C9   1.350       .  A
N3            N5   1.316       .  A
N3            N4   1.321       .  A
N3          Mn19   2.202   1_554  S
N4           C10   1.351       .  A
N5            N6   1.320       .  A
N5          Mn30   2.200   1_554  S
N6           C10   1.350       .  A
N7            N8   1.321       .  A
N7          Mn19   2.202       .  S
N8            C9   1.351       .  A
C9          C249   1.435       .  S
C10         C242   1.435       .  S
N11          N17   1.316       .  A
N11          N12   1.321       .  A
N11         Mn41   2.202   1_554  S
N12          C20   1.351       .  A
N13          N14   1.320       .  A
N13          N15   1.316       .  A
N13         Mn19   2.201       .  S
N14          C21   1.350       .  A
N15          N16   1.321       .  A
N15         Mn41   2.203       .  S
N16          C21   1.351       .  A
N17          N18   1.320       .  A
N17         Mn19   2.200   1_554  S
N18          C20   1.350       .  A
Mn19        Cl43   2.547       .  S
C20         C245   1.434       .  S
C21         C254   1.435       .  S
N22          N23   1.321       .  A
N22          N28   1.316       .  A
N22         Mn30   2.200   1_554  S
N23          C31   1.350       .  A
N24          N26   1.316       .  A
N24          N25   1.321       .  A
N24         Mn42   2.203       .  S
N25          C32   1.351       .  A
N26          N27   1.321       .  A
N26         Mn30   2.201       .  S
N27          C32   1.350       .  A
N28          N29   1.321       .  A
N28         Mn42   2.202   1_554  S
N29          C31   1.351       .  A
Mn30        Cl43   2.547       .  S
C31         C240   1.435       .  S
C32         C250   1.435       .  S
N33          N34   1.321       .  A
N33          N39   1.316       .  A
N33         Mn41   2.203       .  S
N34          C44   1.351       .  A
N35          N36   1.320       .  A
N35          N37   1.316       .  A
N35         Mn42   2.200   1_554  S
N36          C45   1.350       .  A
N37          N38   1.321       .  A
N37         Mn41   2.202   1_554  S
N38          C45   1.351       .  A
N39          N40   1.320       .  A
N39         Mn42   2.201       .  S
N40          C44   1.350       .  A
Mn41        Cl43   2.548       .  S
Mn42        Cl43   2.548       .  S
C44         C253   1.435       .  S
C45         C247   1.434       .  S
N46          N47   1.321       .  A
N46          N52   1.316       .  A
N46         Mn75   2.203   1_565  S
N47          C54   1.351       .  A
N48          N50   1.316       .  A
N48          N49   1.321       .  A
N48         Mn64   2.200       .  S
N49          C55   1.350       .  A
N50          N51   1.321       .  A
N50         Mn75   2.202       .  S
N51          C55   1.351       .  A
N52          N53   1.321       .  A
N52         Mn64   2.201   1_565  S
N53          C54   1.350       .  A
C54         C238   1.435       .  S
C55         C228   1.435       .  S
N56          N62   1.316       .  A
N56          N57   1.321       .  A
N56         Mn86   2.202       .  S
N57          C65   1.351       .  A
N58          N59   1.321       .  A
N58          N60   1.316       .  A
N58         Mn64   2.201   1_565  S
N59          C66   1.350       .  A
N60          N61   1.321       .  A
N60         Mn86   2.202   1_565  S
N61          C66   1.351       .  A
N62          N63   1.321       .  A
N62         Mn64   2.200       .  S
N63          C65   1.350       .  A
Mn64        Cl88   2.547       .  S
C65         C226   1.435       .  S
C66         C232   1.435       .  S
N67          N68   1.320       .  A
N67          N73   1.316       .  A
N67         Mn75   2.200       .  S
N68          C76   1.350       .  A
N69          N71   1.316       .  A
N69          N70   1.321       .  A
N69         Mn87   2.202   1_565  S
N70          C77   1.351       .  A
N71          N72   1.320       .  A
N71         Mn75   2.201   1_565  S
N72          C77   1.350       .  A
N73          N74   1.321       .  A
N73         Mn87   2.202       .  S
N74          C76   1.351       .  A
Mn75        Cl88   2.548       .  S
C76         C231   1.434       .  S
C77         C237   1.435       .  S
N78          N79   1.320       .  A
N78          N84   1.316       .  A
N78         Mn86   2.201   1_565  S
N79          C89   1.350       .  A
N80          N81   1.321       .  A
N80          N82   1.316       .  A
N80         Mn87   2.202       .  S
N81          C90   1.351       .  A
N82          N83   1.320       .  A
N82         Mn86   2.201       .  S
N83          C90   1.350       .  A
N84          N85   1.321       .  A
N84         Mn87   2.202   1_565  S
N85          C89   1.351       .  A
Mn86        Cl88   2.547       .  S
Mn87        Cl88   2.547       .  S
C89         C234   1.435       .  S
C90         C225   1.434       .  S
N91          N92   1.321       .  A
N91          N97   1.316       .  A
N91        Mn120   2.201   1_655  S
N92          C99   1.350       .  A
N93          N95   1.316       .  A
N93          N94   1.320       .  A
N93        Mn109   2.200       .  S
N94         C100   1.350       .  A
N95          N96   1.321       .  A
N95        Mn120   2.203       .  S
N96         C100   1.351       .  A
N97          N98   1.321       .  A
N97        Mn109   2.202   1_655  S
N98          C99   1.351       .  A
C99         C223   1.434       .  S
C100        C212   1.435       .  S
N101        N107   1.316       .  A
N101        N102   1.321       .  A
N101       Mn131   2.202       .  S
N102        C110   1.351       .  A
N103        N104   1.321       .  A
N103        N105   1.316       .  A
N103       Mn109   2.202   1_655  S
N104        C111   1.351       .  A
N105        N106   1.321       .  A
N105       Mn131   2.201   1_655  S
N106        C111   1.350       .  A
N107        N108   1.320       .  A
N107       Mn109   2.200       .  S
N108        C110   1.350       .  A
Mn109      Cl133   2.547       .  S
C110        C210   1.435       .  S
C111        C217   1.435       .  S
N112        N113   1.321       .  A
N112        N118   1.316       .  A
N112       Mn120   2.203       .  S
N113        C121   1.351       .  A
N114        N116   1.316       .  A
N114        N115   1.321       .  A
N114       Mn132   2.202   1_655  S
N115        C122   1.351       .  A
N116        N117   1.320       .  A
N116       Mn120   2.201   1_655  S
N117        C122   1.350       .  A
N118        N119   1.320       .  A
N118       Mn132   2.200       .  S
N119        C121   1.350       .  A
Mn120      Cl133   2.547       .  S
C121        C215   1.435       .  S
C122        C220   1.435       .  S
N123        N124   1.320       .  A
N123        N129   1.316       .  A
N123       Mn131   2.201   1_655  S
N124        C134   1.350       .  A
N125        N126   1.320       .  A
N125        N127   1.316       .  A
N125       Mn132   2.200       .  S
N126        C135   1.350       .  A
N127        N128   1.321       .  A
N127       Mn131   2.202       .  S
N128        C135   1.351       .  A
N129        N130   1.321       .  A
N129       Mn132   2.202   1_655  S
N130        C134   1.351       .  A
Mn131      Cl133   2.547       .  S
Mn132      Cl133   2.548       .  S
C134        C219   1.435       .  S
C135        C209   1.435       .  S
C136        C221   1.439       .  S
C136        C137   1.401       .  A
C136        C141   1.401       .  A
C137        C138   1.402       .  A
C137        H142   1.085       .  S
C138        C241   1.439       .  S
C138        C139   1.401       .  A
C139        C140   1.401       .  A
C139        H143   1.085       .  S
C140        C230   1.439       .  S
C140        C141   1.401       .  A
C141        H144   1.085       .  S
C145        C222   1.439       .  S
C145        C146   1.401       .  A
C145        C150   1.401       .  A
C146        C147   1.401       .  A
C146        H151   1.085       .  S
C147        C243   1.439       .  S
C147        C148   1.401       .  A
C148        C149   1.401       .  A
C148        H152   1.085       .  S
C149        C236   1.439       .  S
C149        C150   1.401       .  A
C150        H153   1.085       .  S
C154        C251   1.439       .  S
C154        C155   1.401       .  A
C154        C159   1.401       .  A
C155        C156   1.401       .  A
C155        H160   1.085       .  S
C156        C224   1.439       .  S
C156        C157   1.401       .  A
C157        C158   1.401       .  A
C157        H161   1.085       .  S
C158        C218   1.439       .  S
C158        C159   1.401       .  A
C159        H162   1.085       .  S
C163        C239   1.440       .  S
C163        C164   1.402       .  A
C163        C168   1.401       .  A
C164        C165   1.402       .  A
C164        H169   1.084       .  S
C165        C213   1.439       .  S
C165        C166   1.401       .  A
C166        C167   1.401       .  A
C166        H170   1.085       .  S
C167        C244   1.438       .  S
C167        C168   1.401       .  A
C168        H171   1.085       .  S
C172        C233   1.439       .  S
C172        C173   1.401       .  A
C172        C177   1.401       .  A
C173        C174   1.401       .  A
C173        H178   1.084       .  S
C174        C211   1.439       .  S
C174        C175   1.401       .  A
C175        C176   1.401       .  A
C175        H179   1.085       .  S
C176        C255   1.439       .  S
C176        C177   1.401       .  A
C177        H180   1.085       .  S
C181        C252   1.439       .  S
C181        C182   1.401       .  A
C181        C186   1.401       .  A
C182        C183   1.401       .  A
C182        H187   1.085       .  S
C183        C208   1.439       .  S
C183        C184   1.401       .  A
C184        C185   1.401       .  A
C184        H188   1.085       .  S
C185        C227   1.439       .  S
C185        C186   1.401       .  A
C186        H189   1.085       .  S
C190        C248   1.439       .  S
C190        C191   1.401       .  A
C190        C195   1.401       .  A
C191        C192   1.401       .  A
C191        H196   1.085       .  S
C192        C235   1.439       .  S
C192        C193   1.401       .  A
C193        C194   1.401       .  A
C193        H197   1.085       .  S
C194        C216   1.439       .  S
C194        C195   1.401       .  A
C195        H198   1.085       .  S
C199        C229   1.439       .  S
C199        C200   1.401       .  A
C199        C204   1.402       .  A
C200        C201   1.401       .  A
C200        H205   1.085       .  S
C201        C246   1.438       .  S
C201        C202   1.400       .  A
C202        C203   1.401       .  A
C202        H206   1.085       .  S
C203        C214   1.439       .  S
C203        C204   1.402       .  A
C204        H207   1.084       .  S
C208        C209   1.205       .  T
C210        C211   1.205       .  T
C212        C213   1.205       .  T
C214        C215   1.205       .  T
C216        C217   1.205       .  T
C218        C219   1.205       .  T
C220        C221   1.205       .  T
C222        C223   1.205       .  T
C224        C225   1.205       .  T
C226        C227   1.205       .  T
C228        C229   1.206       .  T
C230        C231   1.205       .  T
C232        C233   1.205       .  T
C234        C235   1.205       .  T
C236        C237   1.205       .  T
C238        C239   1.206       .  T
C240        C241   1.205       .  T
C242        C243   1.205       .  T
C244        C245   1.205       .  T
C246        C247   1.205       .  T
C248        C249   1.205       .  T
C250        C251   1.205       .  T
C252        C253   1.205       .  T
C254        C255   1.205       .  T
