geometry optimzed in LAMMPS
_audit_creation_date              2020-11-30 
_audit_creation_method            'lammps2cif' 
_symmetry_space_group_name_H-M    'P1' 
_symmetry_Int_Tables_number       1 
_symmetry_cell_setting            triclinic 
loop_ 
_symmetry_equiv_pos_as_xyz 
  x,y,z 
_cell_length_a                    27.10309225923798 
_cell_length_b                    27.070878508006174 
_cell_length_c                    92.71605851813834 
_cell_angle_alpha                 90.07395962332686 
_cell_angle_beta                  90.10745062556883 
_cell_angle_gamma                 94.03840397751266 
loop_ 
_atom_site_label 
_atom_site_type_symbol 
_atom_site_fract_x 
_atom_site_fract_y 
_atom_site_fract_z 
_atom_site_charge 
N1          N  0.49928085  0.67393541  0.48685399    -0.27870
N2          N  0.50742233  0.65102362  0.47457762    -0.35730
C3          C  0.51080120  0.60257110  0.47718306     0.00470
C4          C  0.50432419  0.59431117  0.49181841     0.06490
C5          C  0.49701953  0.64051207  0.49760091    -0.06600
H6          H  0.51672015  0.57533648  0.46893557     0.07160
H7          H  0.49117315  0.64946348  0.50881309     0.08360
Cu8        Cu  0.51174682  0.68552318  0.45465184     0.44170
Cu9        Cu  0.49308592  0.74976897  0.48848748     0.41990
Cu10       Cu  0.49524438  0.81584921  0.45440758     0.43880
N11         N  0.50691709  0.72634562  0.43589135    -0.35260
N12         N  0.49869458  0.77387385  0.43581078    -0.29510
C13         C  0.49449512  0.78901815  0.42208480    -0.05610
C14         C  0.50098967  0.74917177  0.41308661     0.06600
C15         C  0.50894187  0.71007565  0.42221134     0.00400
H16         H  0.48801725  0.82645470  0.41890241     0.08050
H17         H  0.51470282  0.67233099  0.41915564     0.07130
N18         N  0.49579957  0.85017956  0.47437182    -0.36710
N19         N  0.49407926  0.82631279  0.48680728    -0.28890
C20         C  0.49549711  0.85958330  0.49761751    -0.04130
C21         C  0.49862199  0.90672253  0.49169504     0.04480
C22         C  0.49873731  0.89915864  0.47692003     0.02580
H23         H  0.49551654  0.85002543  0.50894115     0.07680
H24         H  0.50065043  0.92708504  0.46857066     0.06520
N25         N  0.57335238  0.74706407  0.27705319    -0.27870
N26         N  0.59711256  0.74422075  0.28944147    -0.35730
C27         C  0.64589220  0.74456369  0.28686458     0.00470
C28         C  0.65353283  0.74776171  0.27208931     0.06490
C29         C  0.60642977  0.74923894  0.26624538    -0.06600
H30         H  0.67351308  0.74272374  0.29523332     0.07160
H31         H  0.59657461  0.75214798  0.25499166     0.08360
Cu32       Cu  0.56279435  0.74142381  0.30938605     0.44170
Cu33       Cu  0.49715508  0.74877329  0.27541754     0.41990
Cu34       Cu  0.43157785  0.75464870  0.30943983     0.43880
N35         N  0.52125318  0.74442025  0.32804595    -0.35260
N36         N  0.47343573  0.75115245  0.32808854    -0.29510
C37         C  0.45785134  0.75368447  0.34181662    -0.05610
C38         C  0.49772980  0.74768705  0.35084760     0.06600
C39         C  0.53728624  0.74178879  0.34173434     0.00400
H40         H  0.42011332  0.75868528  0.34497000     0.08130
H41         H  0.57516251  0.73691160  0.34480660     0.07130
N42         N  0.39729690  0.75315605  0.28943179    -0.36710
N43         N  0.42100723  0.75087426  0.27704014    -0.28890
C44         C  0.38795123  0.75000284  0.26619434    -0.04130
C45         C  0.34092333  0.75177107  0.27201323     0.04480
C46         C  0.34857284  0.75372916  0.28681359     0.02580
H47         H  0.39775944  0.74792052  0.25492516     0.07680
H48         H  0.32100131  0.75560766  0.29516654     0.06520
N49         N  0.43583516  0.25494664  0.73651603    -0.27870
N50         N  0.41193638  0.25639796  0.72411398    -0.35730
C51         C  0.36320728  0.25660224  0.72671241     0.00470
C52         C  0.35573516  0.25525650  0.74151792     0.06490
C53         C  0.40290352  0.25423696  0.74735291    -0.06600
H54         H  0.33551053  0.25751598  0.71833461     0.07160
H55         H  0.41294321  0.25298647  0.75862742     0.08360
Cu56       Cu  0.44606775  0.25740878  0.70413633     0.44170
Cu57       Cu  0.51206364  0.25363153  0.73814160     0.41990
Cu58       Cu  0.57779963  0.24801758  0.70412036     0.43880
N59         N  0.48773077  0.25496235  0.68547685    -0.35260
N60         N  0.53587562  0.24998114  0.68546003    -0.29510
C61         C  0.55167929  0.24799708  0.67174442    -0.05610
C62         C  0.51156738  0.25245410  0.66268107     0.06600
C63         C  0.47165404  0.25689836  0.67177754     0.00400
H64         H  0.58971653  0.24447257  0.66862621     0.08050
H65         H  0.43356176  0.26049452  0.66869159     0.07130
N66         N  0.61201237  0.25012928  0.72412414    -0.36710
N67         N  0.58826699  0.25226889  0.73651205    -0.28890
C68         C  0.62134921  0.25369756  0.74735365    -0.04130
C69         C  0.66843953  0.25244231  0.74153512     0.04480
C70         C  0.66077598  0.25018963  0.72673752     0.02580
H71         H  0.61147509  0.25571510  0.75861782     0.07680
H72         H  0.68835847  0.24878074  0.71837259     0.06520
N73         N  0.51115059  0.32731317  0.52673864    -0.27870
N74         N  0.50278131  0.35013538  0.53901393    -0.35730
C75         C  0.49944699  0.39860726  0.53642650     0.00470
C76         C  0.50617966  0.40696998  0.52180411     0.06490
C77         C  0.51359041  0.36080788  0.51601149    -0.06600
H78         H  0.49337769  0.42578173  0.54467860     0.07160
H79         H  0.51963277  0.35192652  0.50480442     0.08360
Cu80       Cu  0.49814499  0.31549354  0.55891867     0.44170
Cu81       Cu  0.51745358  0.25150812  0.52506955     0.41990
Cu82       Cu  0.51605569  0.18541642  0.55911652     0.43880
N83         N  0.50323794  0.27461590  0.57766192    -0.35260
N84         N  0.51223613  0.22727496  0.57772172    -0.29510
C85         C  0.51661321  0.21212194  0.59144096    -0.05610
C86         C  0.50933815  0.25173062  0.60044685     0.06600
C87         C  0.50077829  0.29071420  0.59135100     0.00400
H88         H  0.52364801  0.17481613  0.59461732     0.08050
H89         H  0.49430771  0.32826718  0.59443735     0.07130
N90         N  0.51514144  0.15108257  0.53915222    -0.36710
N91         N  0.51658791  0.17496839  0.52672036    -0.28890
C92         C  0.51496580  0.14171663  0.51590390    -0.04130
C93         C  0.51197835  0.09457085  0.52182047     0.04480
C94         C  0.51215951  0.10210671  0.53659716     0.02580
H95         H  0.51471378  0.15128705  0.50458234     0.07680
H96         H  0.51042508  0.07416178  0.54494136     0.06520
N97         N  0.93619412  0.25697270  0.77707905    -0.27870
N98         N  0.91251966  0.25950691  0.78946671    -0.35730
C99         C  0.86374821  0.25949787  0.78686607     0.00470
C100        C  0.85601403  0.25685906  0.77207523     0.06490
C101        C  0.90306704  0.25533369  0.76624889    -0.06600
H102        H  0.83620601  0.26117691  0.79523324     0.07160
H103        H  0.91288290  0.25294642  0.75498832     0.08360
Cu104      Cu  0.94690748  0.26180560  0.80944259     0.44170
Cu105      Cu  0.01236035  0.25526086  0.77545335     0.41990
Cu106      Cu  0.07830761  0.24994088  0.80947269     0.43880
N107        N  0.98871132  0.25911177  0.82810599    -0.35260
N108        N  0.03665519  0.25301908  0.82812699    -0.29510
C109        C  0.05253572  0.25077808  0.84184506    -0.05610
C110        C  0.01271219  0.25624858  0.85090235     0.06600
C111        C  0.97287105  0.26156890  0.84180446     0.00400
H112        H  0.09044756  0.24636512  0.84497223     0.08050
H113        H  0.93496267  0.26601766  0.84489064     0.07130
N114        N  0.11240942  0.25148195  0.78948008    -0.36710
N115        N  0.08854838  0.25355232  0.77708554    -0.28890
C116        C  0.12149728  0.25463685  0.76624876    -0.04130
C117        C  0.16863843  0.25322270  0.77207399     0.04480
C118        C  0.16113196  0.25124640  0.78687418     0.02580
H119        H  0.11149051  0.25644756  0.75498131     0.07680
H120        H  0.18880323  0.24988443  0.79524476     0.06520
N121        N  0.01241381  0.18138168  0.98689902    -0.27870
N122        N  0.01786698  0.15776885  0.97458463    -0.35730
C123        C  0.01731614  0.10890946  0.97718160     0.00470
C124        C  0.01103009  0.10118521  0.99186045     0.06490
C125        C  0.00809203  0.14813508  0.99766161    -0.06600
H126        H  0.01992277  0.08110353  0.96888551     0.07160
H127        H  0.00302956  0.15767397  0.00886562     0.08360
Cu128      Cu  0.02232532  0.19222111  0.95464348     0.44170
Cu129      Cu  0.00931204  0.25749067  0.98849707     0.41990
Cu130      Cu  0.99893706  0.32175118  0.95451312     0.43880
N131        N  0.01709439  0.23351505  0.93597315    -0.35260
N132        N  0.00623446  0.28035242  0.93592411    -0.29510
C133        C  0.00272520  0.29572253  0.92220012    -0.05610
C134        C  0.01239125  0.25681898  0.91317237     0.06600
C135        C  0.02149619  0.21800135  0.92228002     0.00400
H136        H  0.99454817  0.33273913  0.91904621     0.08050
H137        H  0.02960719  0.18087937  0.91919540     0.07130
N138        N  0.00005779  0.35662903  0.97442711    -0.36710
N139        N  0.00477673  0.33339869  0.98682517    -0.28890
C140        C  0.00613004  0.36675206  0.99760354    -0.04130
C141        C  0.00189879  0.41334719  0.99171871     0.04480
C142        C  0.99807936  0.40532707  0.97697847     0.02580
H143        H  0.00962349  0.35751109  0.00888697     0.07680
H144        H  0.99510653  0.43285603  0.96863821     0.06520
N145        N  0.92111101  0.75579221  0.23661804    -0.27870
N146        N  0.89721529  0.75831791  0.22424240    -0.35730
C147        C  0.84846484  0.75792586  0.22685422     0.00470
C148        C  0.84096329  0.75502444  0.24163934     0.06490
C149        C  0.88813272  0.75377172  0.24745491    -0.06600
H150        H  0.82077478  0.75957235  0.21849846     0.07160
H151        H  0.89809522  0.75116810  0.25870883     0.08360
Cu152      Cu  0.93124041  0.76107695  0.20425582     0.44170
Cu153      Cu  0.99736076  0.75444544  0.23817923     0.41990
Cu154      Cu  0.06284211  0.75078710  0.20406991     0.43880
N155        N  0.97263985  0.75927945  0.18554072    -0.35260
N156        N  0.02072047  0.75393709  0.18545623    -0.29510
C157        C  0.03630961  0.75218062  0.17171593    -0.05610
C158        C  0.99613289  0.75714006  0.16270773     0.06600
C159        C  0.95639827  0.76167470  0.17186491     0.00400
H160        H  0.07423977  0.74832987  0.16854381     0.08050
H161        H  0.91829092  0.76549647  0.16883525     0.07130
N162        N  0.09722707  0.75138223  0.22406209    -0.36710
N163        N  0.07353355  0.75281727  0.23647693    -0.28890
C164        C  0.10661630  0.75315747  0.24730622    -0.04130
C165        C  0.15365447  0.75190911  0.24145723     0.04480
C166        C  0.14597625  0.75082447  0.22665189     0.02580
H167        H  0.09680042  0.75449396  0.25858752     0.07680
H168        H  0.17354362  0.74957055  0.21827593     0.06520
N169        N  0.00017601  0.68096455  0.02674024    -0.27870
N170        N  0.00520588  0.65774798  0.03912556    -0.35730
C171        C  0.00717725  0.60905710  0.03656724     0.00470
C172        C  0.00304476  0.60102041  0.02183326     0.06490
C173        C  0.99862537  0.64760779  0.01596053    -0.06600
H174        H  0.01038612  0.58155021  0.04490143     0.07160
H175        H  0.99488148  0.65684408  0.00468484     0.08360
Cu176      Cu  0.00679606  0.69265586  0.05903348     0.44170
Cu177      Cu  0.99551454  0.75686269  0.02511136     0.41990
Cu178      Cu  0.98260297  0.82198999  0.05902521     0.43880
N179        N  0.99978507  0.73392201  0.07765695    -0.35260
N180        N  0.98849491  0.78063247  0.07766651    -0.29510
C181        C  0.98438573  0.79601983  0.09138405    -0.05610
C182        C  0.99418828  0.75726860  0.10043557     0.06600
C183        C  0.00392295  0.71853349  0.09135951     0.00400
H184        H  0.97606960  0.83303065  0.09452310     0.08050
H185        H  0.01259496  0.68161932  0.09447060     0.07130
N186        N  0.98693619  0.85651400  0.03908552    -0.36710
N187        N  0.99236830  0.83295096  0.02676086    -0.28890
C188        C  0.99669242  0.86623723  0.01600974    -0.04130
C189        C  0.99378622  0.91316594  0.02182588     0.04480
C190        C  0.98750731  0.90538862  0.03650341     0.02580
H191        H  0.00175146  0.85673686  0.00480271     0.07680
H192        H  0.98494248  0.93317119  0.04480826     0.06520
C193        C  0.96129330  0.78385169  0.13918208    -0.13930
C194        C  0.99567885  0.75728116  0.14676534     0.08220
C195        C  0.02957882  0.73076489  0.13899512    -0.13930
C196        C  0.02866091  0.73027221  0.12392028    -0.13930
C197        C  0.99469719  0.75733462  0.11635329     0.08220
C198        C  0.96124435  0.78440596  0.12410152    -0.13930
H199        H  0.93494021  0.80483392  0.14490861     0.12210
H200        H  0.05627583  0.70973244  0.14457175     0.12210
H201        H  0.05500643  0.70933658  0.11816956     0.12210
H202        H  0.93454400  0.80535289  0.11849034     0.12210
C203        C  0.01837580  0.96478760  0.00021344    -0.13930
C204        C  0.99807173  0.96125054  0.01413761     0.08220
C205        C  0.98218354  0.00418454  0.02068824    -0.13930
C206        C  0.98649819  0.04958742  0.01348473    -0.13930
C207        C  0.00678904  0.05311942  0.99955877     0.08220
C208        C  0.02269146  0.01018767  0.99301055    -0.13930
H209        H  0.03157247  0.93265119  0.99490326     0.12210
H210        H  0.96585095  0.00275427  0.03133140     0.12210
H211        H  0.97330276  0.08172664  0.01879383     0.12210
H212        H  0.03902580  0.01161226  0.98236769     0.12210
C213        C  0.02123976  0.51152120  0.02079183    -0.13930
C214        C  0.00280176  0.55302152  0.01411084     0.08220
C215        C  0.98401101  0.54815420  0.00000883    -0.13930
C216        C  0.98366450  0.50283669  0.99275688    -0.13930
C217        C  0.00210244  0.46134104  0.99943927     0.08220
C218        C  0.02088318  0.46620480  0.01354135    -0.13930
H219        H  0.03654253  0.51406653  0.03157536     0.12210
H220        H  0.96896143  0.57915704  0.99459878     0.12210
H221        H  0.96837527  0.50027954  0.98197140     0.12210
H222        H  0.03593657  0.43520089  0.01895032     0.12210
C223        C  0.97961055  0.28433361  0.87446389    -0.13930
C224        C  0.01269449  0.25640583  0.86683780     0.08220
C225        C  0.04570643  0.22861142  0.87455465    -0.13930
C226        C  0.04517419  0.22823025  0.88963399    -0.13930
C227        C  0.01252943  0.25666857  0.89724889     0.08220
C228        C  0.97997281  0.28496773  0.88953930    -0.13930
H229        H  0.95397884  0.30630503  0.86877096     0.12210
H230        H  0.07138680  0.20653880  0.86892953     0.12210
H231        H  0.07080837  0.20630756  0.89534613     0.12210
H232        H  0.95425102  0.30697431  0.89517376     0.12210
C233        C  0.30638191  0.25273367  0.76448597    -0.13930
C234        C  0.30785233  0.25481423  0.74934348     0.08220
C235        C  0.26301089  0.25644179  0.74175832    -0.13930
C236        C  0.21799937  0.25595792  0.74910353    -0.13930
C237        C  0.21652752  0.25383177  0.76424607     0.08220
C238        C  0.26137327  0.25225185  0.77183078    -0.13930
H239        H  0.33990410  0.25141983  0.77076640     0.12210
H240        H  0.26231623  0.25811012  0.73011389     0.12210
H241        H  0.18447263  0.25724295  0.74282355     0.12210
H242        H  0.26207444  0.25060218  0.78347524     0.12210
C243        C  0.76129492  0.25351599  0.74176357    -0.13930
C244        C  0.71643606  0.25352078  0.74936201     0.08220
C245        C  0.71800263  0.25458663  0.76451430    -0.13930
C246        C  0.76313781  0.25564382  0.77185684    -0.13930
C247        C  0.80799718  0.25567161  0.76425666     0.08220
C248        C  0.80642485  0.25457421  0.74910531    -0.13930
H249        H  0.76192351  0.25279711  0.73011021     0.12210
H250        H  0.68445450  0.25453434  0.77080256     0.12210
H251        H  0.76252025  0.25635199  0.78351064     0.12210
H252        H  0.83996982  0.25464529  0.74281530     0.12210
C253        C  0.47689651  0.27898623  0.63913878    -0.13930
C254        C  0.51132277  0.25254469  0.64674328     0.08220
C255        C  0.54533955  0.22607121  0.63899983    -0.13930
C256        C  0.54434001  0.22534655  0.62392159    -0.13930
C257        C  0.51024450  0.25221064  0.61634707     0.08220
C258        C  0.47682032  0.27937033  0.62406507    -0.13930
H259        H  0.45048645  0.29996024  0.64484408     0.12210
H260        H  0.57209808  0.20518162  0.64460053     0.12210
H261        H  0.57063426  0.20434637  0.61816915     0.12210
H262        H  0.45005154  0.30016958  0.61843048     0.12210
C263        C  0.24797468  0.74825504  0.27174359    -0.13930
C264        C  0.29300329  0.75164255  0.26417882     0.08220
C265        C  0.29169720  0.75503529  0.24905778    -0.13930
C266        C  0.24662565  0.75512812  0.24171052    -0.13930
C267        C  0.20159435  0.75180445  0.24927771     0.08220
C268        C  0.20290980  0.74834489  0.26439781    -0.13930
H269        H  0.24719591  0.74524703  0.28336721     0.12210
H270        H  0.32542343  0.75798473  0.24281432     0.12210
H271        H  0.24740421  0.75811501  0.23008675     0.12210
H272        H  0.16920080  0.74542290  0.27064779     0.12210
C273        C  0.74799775  0.75085496  0.24182738    -0.13930
C274        C  0.79301377  0.75321557  0.24944894     0.08220
C275        C  0.79164704  0.75378633  0.26460222    -0.13930
C276        C  0.74653341  0.75203111  0.27192489    -0.13930
C277        C  0.70152047  0.74964999  0.26429948     0.08220
C278        C  0.70289797  0.74910055  0.24914793    -0.13930
H279        H  0.74723205  0.75010548  0.23017289     0.12210
H280        H  0.82534162  0.75580277  0.27089891     0.12210
H281        H  0.74726986  0.75277999  0.28358028     0.12210
H282        H  0.66921520  0.74706480  0.24284652     0.12210
C283        C  0.48593059  0.95788145  0.51375384    -0.13930
C284        C  0.50205547  0.95477140  0.49941664     0.08220
C285        C  0.52142811  0.99803847  0.49249866    -0.13930
C286        C  0.52456363  0.04343515  0.49975472    -0.13930
C287        C  0.50846083  0.04653865  0.51409328     0.08220
C288        C  0.48907561  0.00327805  0.52101082    -0.13930
H289        H  0.47027657  0.92537833  0.51933232     0.12210
H290        H  0.53478742  0.99683910  0.48152130     0.12210
H291        H  0.54022148  0.07594109  0.49417791     0.12210
H292        H  0.47573127  0.00448569  0.53198999     0.12210
C293        C  0.52781741  0.50652754  0.49333438    -0.13930
C294        C  0.50492211  0.54643922  0.49952234     0.08220
C295        C  0.48244142  0.54008235  0.51309179    -0.13930
C296        C  0.48279203  0.49480300  0.52030572    -0.13930
C297        C  0.50567031  0.45488236  0.51411527     0.08220
C298        C  0.52817518  0.46125175  0.50054894    -0.13930
H299        H  0.54602918  0.51034916  0.48297942     0.12210
H300        H  0.46396040  0.56985848  0.51808123     0.12210
H301        H  0.46456978  0.49098300  0.53065887     0.12210
H302        H  0.54665404  0.43147962  0.49555715     0.12210
C303        C  0.46789419  0.77792882  0.38959573    -0.13930
C304        C  0.49980348  0.74852672  0.39717319     0.08220
C305        C  0.53074636  0.71861597  0.38943707    -0.13930
C306        C  0.53042157  0.71875348  0.37436289    -0.13930
C307        C  0.49816642  0.74776335  0.36677550     0.08220
C308        C  0.46659107  0.77702856  0.37451958    -0.13930
H309        H  0.44348248  0.80108147  0.39533865     0.12210
H310        H  0.55583957  0.69581280  0.39504894     0.12210
H311        H  0.55491603  0.69564628  0.36863785     0.12210
H312        H  0.44156588  0.79991391  0.36891300     0.12210
loop_ 
_geom_bond_atom_site_label_1 
_geom_bond_atom_site_label_2 
_geom_bond_distance 
_geom_bond_site_symmetry_2 
_ccdc_geom_bond_type 
N1            N2   1.322       .  A
N1            C5   1.345       .  A
N1           Cu9   2.077       .  S
N2            C3   1.343       .  A
N2           Cu8   2.071       .  S
C3            C4   1.385       .  A
C3            H6   1.082       .  S
C4            C5   1.387       .  A
C4          C294   1.482       .  S
C5            H7   1.082       .  S
Cu8          N11   2.071       .  S
Cu9          N19   2.076       .  S
Cu10         N12   2.070       .  S
Cu10         N18   2.070       .  S
N11          N12   1.321       .  A
N11          C15   1.345       .  A
N12          C13   1.345       .  A
C13          C14   1.384       .  A
C13          H16   1.082       .  S
C14          C15   1.384       .  A
C14         C304   1.476       .  S
C15          H17   1.082       .  S
N18          N19   1.322       .  A
N18          C22   1.343       .  A
N19          C20   1.345       .  A
C20          C21   1.387       .  A
C20          H23   1.082       .  S
C21          C22   1.385       .  A
C21         C284   1.481       .  S
C22          H24   1.081       .  S
N25          N26   1.321       .  A
N25          C29   1.344       .  A
N25         Cu33   2.074       .  S
N26          C27   1.343       .  A
N26         Cu32   2.071       .  S
C27          C28   1.388       .  A
C27          H30   1.081       .  S
C28          C29   1.389       .  A
C28         C277   1.487       .  S
C29          H31   1.081       .  S
Cu32         N35   2.071       .  S
Cu33         N43   2.074       .  S
Cu34         N36   2.072       .  S
Cu34         N42   2.072       .  S
N35          N36   1.321       .  A
N35          C39   1.344       .  A
N36          C37   1.345       .  A
C37          C38   1.385       .  A
C37          H40   1.082       .  S
C38          C39   1.384       .  A
C38         C307   1.477       .  S
C39          H41   1.082       .  S
N42          N43   1.321       .  A
N42          C46   1.343       .  A
N43          C44   1.345       .  A
C44          C45   1.389       .  A
C44          H47   1.081       .  S
C45          C46   1.388       .  A
C45         C264   1.487       .  S
C46          H48   1.081       .  S
N49          N50   1.321       .  A
N49          C53   1.344       .  A
N49         Cu57   2.074       .  S
N50          C51   1.343       .  A
N50         Cu56   2.071       .  S
C51          C52   1.388       .  A
C51          H54   1.081       .  S
C52          C53   1.389       .  A
C52         C234   1.487       .  S
C53          H55   1.081       .  S
Cu56         N59   2.071       .  S
Cu57         N67   2.074       .  S
Cu58         N60   2.071       .  S
Cu58         N66   2.071       .  S
N59          N60   1.321       .  A
N59          C63   1.344       .  A
N60          C61   1.345       .  A
C61          C62   1.385       .  A
C61          H64   1.082       .  S
C62          C63   1.385       .  A
C62         C254   1.478       .  S
C63          H65   1.082       .  S
N66          N67   1.321       .  A
N66          C70   1.343       .  A
N67          C68   1.344       .  A
C68          C69   1.389       .  A
C68          H71   1.081       .  S
C69          C70   1.388       .  A
C69         C244   1.487       .  S
C70          H72   1.081       .  S
N73          N74   1.322       .  A
N73          C77   1.345       .  A
N73         Cu81   2.077       .  S
N74          C75   1.343       .  A
N74         Cu80   2.071       .  S
C75          C76   1.385       .  A
C75          H78   1.082       .  S
C76          C77   1.387       .  A
C76         C297   1.482       .  S
C77          H79   1.082       .  S
Cu80         N83   2.071       .  S
Cu81         N91   2.076       .  S
Cu82         N84   2.069       .  S
Cu82         N90   2.070       .  S
N83          N84   1.321       .  A
N83          C87   1.345       .  A
N84          C85   1.345       .  A
C85          C86   1.383       .  A
C85          H88   1.082       .  S
C86          C87   1.384       .  A
C86         C257   1.474       .  S
C87          H89   1.082       .  S
N90          N91   1.322       .  A
N90          C94   1.343       .  A
N91          C92   1.345       .  A
C92          C93   1.387       .  A
C92          H95   1.082       .  S
C93          C94   1.385       .  A
C93         C287   1.481       .  S
C94          H96   1.082       .  S
N97          N98   1.321       .  A
N97         C101   1.344       .  A
N97        Cu105   2.074   1_655  S
N98          C99   1.343       .  A
N98        Cu104   2.071       .  S
C99         C100   1.388       .  A
C99         H102   1.081       .  S
C100        C101   1.389       .  A
C100        C247   1.487       .  S
C101        H103   1.081       .  S
Cu104       N107   2.071       .  S
Cu105       N115   2.074       .  S
Cu106       N108   2.072       .  S
Cu106       N114   2.072       .  S
N107        N108   1.321   1_655  A
N107        C111   1.344       .  A
N108        C109   1.345       .  A
C109        C110   1.385       .  A
C109        H112   1.082       .  S
C110        C111   1.385   1_455  A
C110        C224   1.477       .  S
C111        H113   1.082       .  S
N114        N115   1.321       .  A
N114        C118   1.343       .  A
N115        C116   1.344       .  A
C116        C117   1.389       .  A
C116        H119   1.081       .  S
C117        C118   1.388       .  A
C117        C237   1.487       .  S
C118        H120   1.081       .  S
N121        N122   1.321       .  A
N121        C125   1.344       .  A
N121       Cu129   2.073       .  S
N122        C123   1.344       .  A
N122       Cu128   2.072       .  S
C123        C124   1.386       .  A
C123        H126   1.081       .  S
C124        C125   1.387       .  A
C124        C207   1.482       .  S
C125        H127   1.081   1_556  S
Cu128       N131   2.072       .  S
Cu129       N139   2.073       .  S
Cu130       N132   2.072   1_655  S
Cu130       N138   2.072   1_655  S
N131        N132   1.322       .  A
N131        C135   1.345       .  A
N132        C133   1.345       .  A
C133        C134   1.384       .  A
C133        H136   1.082   1_455  S
C134        C135   1.384       .  A
C134        C227   1.476       .  S
C135        H137   1.082       .  S
N138        N139   1.321       .  A
N138        C142   1.344   1_455  A
N139        C140   1.345       .  A
C140        C141   1.387       .  A
C140        H143   1.081   1_556  S
C141        C142   1.386   1_455  A
C141        C217   1.482       .  S
C142        H144   1.081       .  S
N145        N146   1.321       .  A
N145        C149   1.345       .  A
N145       Cu153   2.074       .  S
N146        C147   1.343       .  A
N146       Cu152   2.070       .  S
C147        C148   1.388       .  A
C147        H150   1.081       .  S
C148        C149   1.389       .  A
C148        C274   1.487       .  S
C149        H151   1.081       .  S
Cu152       N155   2.071       .  S
Cu153       N163   2.074   1_655  S
Cu154       N156   2.073       .  S
Cu154       N162   2.073       .  S
N155        N156   1.321   1_655  A
N155        C159   1.345       .  A
N156        C157   1.345       .  A
C157        C158   1.385   1_455  A
C157        H160   1.082       .  S
C158        C159   1.385       .  A
C158        C194   1.478       .  S
C159        H161   1.082       .  S
N162        N163   1.321       .  A
N162        C166   1.344       .  A
N163        C164   1.344       .  A
C164        C165   1.389       .  A
C164        H167   1.081       .  S
C165        C166   1.388       .  A
C165        C267   1.487       .  S
C166        H168   1.081       .  S
N169        N170   1.321       .  A
N169        C173   1.345   1_455  A
N169       Cu177   2.073   1_455  S
N170        C171   1.344       .  A
N170       Cu176   2.072       .  S
C171        C172   1.386       .  A
C171        H174   1.081       .  S
C172        C173   1.387   1_455  A
C172        C214   1.482       .  S
C173        H175   1.081       .  S
Cu176       N179   2.072   1_455  S
Cu177       N187   2.073       .  S
Cu178       N180   2.073       .  S
Cu178       N186   2.072       .  S
N179        N180   1.322       .  A
N179        C183   1.344   1_655  A
N180        C181   1.345       .  A
C181        C182   1.384       .  A
C181        H184   1.082       .  S
C182        C183   1.384   1_655  A
C182        C197   1.476       .  S
C183        H185   1.082       .  S
N186        N187   1.321       .  A
N186        C190   1.344       .  A
N187        C188   1.344       .  A
C188        C189   1.387       .  A
C188        H191   1.081   1_655  S
C189        C190   1.386       .  A
C189        C204   1.482       .  S
C190        H192   1.081       .  S
C193        C194   1.405       .  A
C193        C198   1.398       .  A
C193        H199   1.083       .  S
C194        C195   1.404   1_655  A
C195        C196   1.398       .  A
C195        H200   1.083       .  S
C196        C197   1.404   1_455  A
C196        H201   1.083       .  S
C197        C198   1.404       .  A
C198        H202   1.083       .  S
C203        C204   1.405   1_455  A
C203        C208   1.397   1_564  A
C203        H209   1.082   1_554  S
C204        C205   1.405   1_565  A
C205        C206   1.397       .  A
C205        H210   1.082       .  S
C206        C207   1.405   1_654  A
C206        H211   1.082       .  S
C207        C208   1.405       .  A
C208        H212   1.082       .  S
C213        C214   1.405       .  A
C213        C218   1.398       .  A
C213        H219   1.082       .  S
C214        C215   1.405   1_455  A
C215        C216   1.398   1_554  A
C215        H220   1.082   1_554  S
C216        C217   1.405   1_655  A
C216        H221   1.082       .  S
C217        C218   1.405   1_556  A
C218        H222   1.082       .  S
C223        C224   1.404   1_655  A
C223        C228   1.398       .  A
C223        H229   1.083       .  S
C224        C225   1.404       .  A
C225        C226   1.398       .  A
C225        H230   1.083       .  S
C226        C227   1.404       .  A
C226        H231   1.083       .  S
C227        C228   1.404   1_455  A
C228        H232   1.083       .  S
C233        C234   1.406       .  A
C233        C238   1.397       .  A
C233        H239   1.081       .  S
C234        C235   1.406       .  A
C235        C236   1.398       .  A
C235        H240   1.081       .  S
C236        C237   1.406       .  A
C236        H241   1.081       .  S
C237        C238   1.406       .  A
C238        H242   1.081       .  S
C243        C244   1.406       .  A
C243        C248   1.397       .  A
C243        H249   1.081       .  S
C244        C245   1.406       .  A
C245        C246   1.397       .  A
C245        H250   1.081       .  S
C246        C247   1.406       .  A
C246        H251   1.081       .  S
C247        C248   1.406       .  A
C248        H252   1.081       .  S
C253        C254   1.405       .  A
C253        C258   1.398       .  A
C253        H259   1.083       .  S
C254        C255   1.405       .  A
C255        C256   1.398       .  A
C255        H260   1.083       .  S
C256        C257   1.403       .  A
C256        H261   1.083       .  S
C257        C258   1.403       .  A
C258        H262   1.083       .  S
C263        C264   1.406       .  A
C263        C268   1.397       .  A
C263        H269   1.081       .  S
C264        C265   1.406       .  A
C265        C266   1.398       .  A
C265        H270   1.081       .  S
C266        C267   1.406       .  A
C266        H271   1.081       .  S
C267        C268   1.406       .  A
C268        H272   1.081       .  S
C273        C274   1.406       .  A
C273        C278   1.397       .  A
C273        H279   1.081       .  S
C274        C275   1.406       .  A
C275        C276   1.398       .  A
C275        H280   1.081       .  S
C276        C277   1.406       .  A
C276        H281   1.081       .  S
C277        C278   1.405       .  A
C278        H282   1.081       .  S
C283        C284   1.404       .  A
C283        C288   1.398   1_565  A
C283        H289   1.082       .  S
C284        C285   1.406       .  A
C285        C286   1.398   1_565  A
C285        H290   1.082       .  S
C286        C287   1.404       .  A
C286        H291   1.082       .  S
C287        C288   1.405       .  A
C288        H292   1.082       .  S
C293        C294   1.406       .  A
C293        C298   1.398       .  A
C293        H299   1.082       .  S
C294        C295   1.404       .  A
C295        C296   1.398       .  A
C295        H300   1.082       .  S
C296        C297   1.406       .  A
C296        H301   1.082       .  S
C297        C298   1.404       .  A
C298        H302   1.082       .  S
C303        C304   1.404       .  A
C303        C308   1.398       .  A
C303        H309   1.083       .  S
C304        C305   1.404       .  A
C305        C306   1.398       .  A
C305        H310   1.083       .  S
C306        C307   1.404       .  A
C306        H311   1.083       .  S
C307        C308   1.404       .  A
C308        H312   1.083       .  S
