geometry optimzed in LAMMPS
_audit_creation_date              2020-12-01 
_audit_creation_method            'lammps2cif' 
_symmetry_space_group_name_H-M    'P1' 
_symmetry_Int_Tables_number       1 
_symmetry_cell_setting            triclinic 
loop_ 
_symmetry_equiv_pos_as_xyz 
  x,y,z 
_cell_length_a                    29.89892244 
_cell_length_b                    23.088395568328426 
_cell_length_c                    22.78404751031247 
_cell_angle_alpha                 90.08102148096279 
_cell_angle_beta                  89.11108481667416 
_cell_angle_gamma                 89.88362130110549 
loop_ 
_atom_site_label 
_atom_site_type_symbol 
_atom_site_fract_x 
_atom_site_fract_y 
_atom_site_fract_z 
_atom_site_charge 
O1          O  0.45649309  0.09370339  0.70310162    -0.56800
C2          C  0.45245745  0.92773401  0.64430897     0.75800
O3          O  0.40989184  0.98113217  0.83947600    -0.58000
C4          C  0.43229745  0.12709837  0.73444422     0.75800
C5          C  0.32133337  0.99895041  0.70305128     0.78200
Cd6        Cd  0.41455704  0.00429469  0.73229867     1.37500
O7          O  0.45363011  0.98226397  0.63867845    -0.56800
O8          O  0.34781593  0.03737150  0.68399796    -0.55600
C9          C  0.45194574  0.97893324  0.84515144     0.78100
O10         O  0.33782633  0.96134287  0.73699455    -0.58000
O11         O  0.43416738  0.90836704  0.69066061    -0.56400
O12         O  0.40070773  0.10384107  0.76337432    -0.56400
O13         O  0.47543175  0.98517020  0.79905318    -0.55600
O14         O  0.44998265  0.82302708  0.44310769    -0.56800
C15         C  0.47183005  0.88906212  0.59945335     0.75800
O16         O  0.48849121  0.71609883  0.54117899    -0.58000
C17         C  0.47349585  0.81015124  0.39826852     0.75800
C18         C  0.59949986  0.87173243  0.50496718     0.78200
Cd19       Cd  0.51421008  0.81534604  0.51205804     1.37500
O20         O  0.47261719  0.83457653  0.60558642    -0.56800
O21         O  0.57001769  0.87846042  0.46630926    -0.55600
C22         C  0.52682096  0.69320838  0.53532146     0.78100
O23         O  0.58963676  0.83811620  0.54713324    -0.58000
O24         O  0.48904423  0.90888905  0.55272842    -0.56400
O25         O  0.51458098  0.80141775  0.40632523    -0.56400
O26         O  0.55876479  0.72689863  0.52263411    -0.55600
O27         O  0.51824107  0.30314140  0.12630058    -0.56800
C28         C  0.54182673  0.15730108  0.03324449     0.75800
O29         O  0.56118973  0.30235871  0.92716716    -0.58000
C30         C  0.52080401  0.35763098  0.12135545     0.75800
C31         C  0.64967748  0.28753489  0.06613793     0.78200
Cd32       Cd  0.55759909  0.28035857  0.03384203     1.37500
O33         O  0.51427449  0.19135900  0.05826376    -0.56800
O34         O  0.61992922  0.26143010  0.09575115    -0.55600
C35         C  0.51918651  0.30649226  0.92194500     0.78100
O36         O  0.63715621  0.31142703  0.01899113    -0.58000
O37         O  0.57600044  0.17999568  0.00956232    -0.56400
O38         O  0.54014452  0.37695762  0.07561801    -0.56400
O39         O  0.49581797  0.30239630  0.96844080    -0.55600
O40         O  0.49722883  0.45007961  0.15803957    -0.56800
C41         C  0.49999534  0.47659414  0.36554063     0.75800
O42         O  0.41293122  0.55745584  0.24267815    -0.58000
C43         C  0.50140434  0.39616400  0.16619473     0.75800
C44         C  0.37154946  0.41294326  0.26021650     0.78200
Cd45       Cd  0.45780602  0.46909807  0.25290063     1.37500
O46         O  0.52361847  0.46863840  0.31967203    -0.56800
O47         O  0.38252474  0.44543962  0.21764252    -0.55600
C48         C  0.44471618  0.59101617  0.22899427     0.78100
O49         O  0.40093713  0.40592040  0.29902952    -0.58000
O50         O  0.45824039  0.47934584  0.35896550    -0.56400
O51         O  0.48715660  0.37664287  0.21473083    -0.56400
O52         O  0.48297977  0.56809679  0.22276497    -0.55600
N53         N  0.92680451  0.10863522  0.33358538    -0.35600
N54         N  0.97827993  0.05994482  0.42873342    -0.56200
N55         N  0.05486731  0.12642504  0.38877503    -0.35600
N56         N  0.00294033  0.17793318  0.29622581    -0.56200
C57         C  0.89379508  0.08550977  0.36741220     0.28000
C58         C  0.90726949  0.14580418  0.29591048     0.28000
C59         C  0.06937889  0.10665250  0.44097278     0.28000
C60         C  0.08171231  0.17104825  0.37292828     0.28000
C61         C  0.94084685  0.02793295  0.43509960     0.36600
C62         C  0.00967464  0.03458997  0.46202161     0.36600
C63         C  0.97579864  0.18886711  0.25081368     0.36600
C64         C  0.04336756  0.19974861  0.28134666     0.36600
C65         C  0.85280413  0.10748208  0.35029924    -0.20900
C66         C  0.86129013  0.14554697  0.30533125    -0.20900
C67         C  0.10602640  0.13881819  0.45834861    -0.20900
C68         C  0.11380774  0.17942705  0.41544374    -0.20900
C69         C  0.94831661  0.98210438  0.47296430    -0.21900
C70         C  0.99218581  0.98614286  0.48981558    -0.21900
C71         C  0.99899207  0.21791829  0.20676857    -0.21900
C72         C  0.04193066  0.22498314  0.22624760    -0.21900
C73         C  0.89920585  0.04274422  0.41113648    -0.17300
C74         C  0.92941300  0.17828061  0.25155024    -0.17300
C75         C  0.08020111  0.20148582  0.31915025    -0.17300
C76         C  0.05250486  0.05780119  0.47139411    -0.17300
H77         H  0.82003796  0.09698153  0.36806481     0.15600
H78         H  0.83629577  0.17016576  0.28215981     0.15600
H79         H  0.12555197  0.13315526  0.49754777     0.15600
H80         H  0.14060687  0.21086034  0.41522695     0.15600
H81         H  0.92447589  0.94978066  0.48758686     0.13900
H82         H  0.00891096  0.95770026  0.52020785     0.13900
H83         H  0.98598786  0.23375038  0.16571179     0.13900
H84         H  0.06869732  0.24723166  0.20312044     0.13900
H85         H  0.96005579  0.09530587  0.33201013     0.27200
H86         H  0.03179609  0.10585913  0.36219093     0.27200
O87         O  0.51142696  0.48223966  0.63142960    -0.56800
C88         C  0.53431993  0.63050538  0.53983732     0.75800
O89         O  0.61595414  0.54087966  0.59160164    -0.58000
C90         C  0.51384038  0.42789334  0.62457881     0.75800
C91         C  0.51903737  0.48420272  0.42381711     0.78200
Cd92       Cd  0.55142861  0.50753757  0.53950534     1.37500
O93         O  0.57117137  0.60863906  0.52317311    -0.56800
O94         O  0.49368370  0.49403495  0.46752649    -0.55600
C95         C  0.64340705  0.50389403  0.57158668     0.78100
O96         O  0.56069593  0.48291460  0.43308819    -0.58000
O97         O  0.50455392  0.59561419  0.55823614    -0.56400
O98         O  0.53321045  0.41003152  0.57831237    -0.56400
O99         O  0.62838541  0.46708029  0.53553615    -0.55600
O100        O  0.51977473  0.30868984  0.81693789    -0.56800
C101        C  0.49470516  0.38786588  0.66808608     0.75800
O102        O  0.41524017  0.22079703  0.77121663    -0.58000
C103        C  0.49790784  0.31245235  0.86476430     0.75800
C104        C  0.36494988  0.36213210  0.74902519     0.78200
Cd105      Cd  0.45281242  0.31277824  0.75365227     1.37500
O106        O  0.49212753  0.33380380  0.65902369    -0.56800
O107        O  0.39479335  0.38132680  0.78259652    -0.55600
C108        C  0.43999587  0.18977223  0.73850860     0.78100
O109        O  0.37573683  0.31948028  0.71678164    -0.58000
O110        O  0.47949436  0.40623761  0.71664118    -0.56400
O111        O  0.45608523  0.31868096  0.86104408    -0.56400
O112        O  0.47124388  0.21543601  0.71075946    -0.55600
O113        O  0.46150901  0.80380095  0.13465232    -0.56800
C114        C  0.43727029  0.65367287  0.22393115     0.75800
O115        O  0.41362242  0.80999740  0.32933036    -0.58000
C116        C  0.45911212  0.85808363  0.14171992     0.75800
C117        C  0.32857809  0.78282248  0.19449371     0.78200
Cd118      Cd  0.42112086  0.77736448  0.22526061     1.37500
O119        O  0.46750118  0.68846359  0.20707863    -0.56800
O120        O  0.35962875  0.76861862  0.15900606    -0.55600
C121        C  0.45477810  0.80306054  0.33972243     0.78100
O122        O  0.34040885  0.79640750  0.24595231    -0.58000
O123        O  0.40013868  0.67574797  0.23884783    -0.56400
O124        O  0.43965824  0.87585579  0.18808430    -0.56400
O125        O  0.47959599  0.78747333  0.29717103    -0.55600
O126        O  0.48025614  0.95208030  0.10630003    -0.56800
C127        C  0.47347748  0.97254524  0.90214580     0.75800
O128        O  0.56435402  0.06158283  0.00860670    -0.58000
C129        C  0.47838481  0.89785772  0.09805995     0.75800
C130        C  0.60688794  0.91594307  0.00908016     0.78200
Cd131      Cd  0.52056415  0.97199681  0.01202955     1.37500
O132        O  0.45181928  0.97065802  0.95024148    -0.56800
O133        O  0.58210166  0.91916296  0.96469114    -0.55600
C134        C  0.53461152  0.09461545  0.02997250     0.78100
O135        O  0.59183619  0.93953235  0.05565301    -0.58000
O136        O  0.51554614  0.97142832  0.90531028    -0.56400
O137        O  0.49443399  0.87895440  0.05009806    -0.56400
O138        O  0.49844780  0.07096164  0.04651114    -0.55600
N139        N  0.04425640  0.59489158  0.93767227    -0.35600
N140        N  0.96996714  0.66592388  0.97853281    -0.56200
N141        N  0.91331450  0.61018459  0.89281615    -0.35600
N142        N  0.98792375  0.54256123  0.84878654    -0.56200
C143        C  0.06567460  0.63341046  0.97219230     0.28000
C144        C  0.07547912  0.57015182  0.90190690     0.28000
C145        C  0.88718788  0.65528540  0.90977510     0.28000
C146        C  0.89664365  0.58982857  0.84194083     0.28000
C147        C  0.99936785  0.67884088  0.02099103     0.36600
C148        C  0.93008223  0.68775203  0.99639196     0.36600
C149        C  0.02509534  0.51032751  0.84024971     0.36600
C150        C  0.95528337  0.51696615  0.81782946     0.36600
C151        C  0.11107236  0.63254129  0.95869252    -0.20900
C152        C  0.11724955  0.59270079  0.91439584    -0.20900
C153        C  0.85355557  0.66354284  0.86937137    -0.20900
C154        C  0.85951462  0.62230607  0.82658772    -0.20900
C155        C  0.97817740  0.70938179  0.06586050    -0.21900
C156        C  0.93417787  0.71505452  0.05023033    -0.21900
C157        C  0.01612403  0.46397762  0.80347957    -0.21900
C158        C  0.97166863  0.46805641  0.78946270    -0.21900
C159        C  0.04573672  0.66768402  0.01720911    -0.17300
C160        C  0.06780591  0.52560894  0.86044149    -0.17300
C161        C  0.91227564  0.54066028  0.81062731    -0.17300
C162        C  0.89087388  0.68673902  0.96274755    -0.17300
H163        H  0.13713127  0.65797562  0.97869722     0.15600
H164        H  0.14902110  0.58139259  0.89399529     0.15600
H165        H  0.82712006  0.69563480  0.87083896     0.15600
H166        H  0.83858829  0.61667721  0.78866148     0.15600
H167        H  0.99305746  0.72669736  0.10515462     0.13900
H168        H  0.90834240  0.73745181  0.07518442     0.13900
H169        H  0.03939991  0.43144270  0.78741541     0.13900
H170        H  0.95383511  0.43945337  0.76035032     0.13900
H171        H  0.01117726  0.58186158  0.94254591     0.27200
H172        H  0.93748135  0.59014689  0.91806834     0.27200
C173        C  0.71068785  0.83663955  0.05980562    -0.01000
C174        C  0.73226275  0.82304587  0.00619602     0.07600
C175        C  0.71318419  0.84083314  0.95348489    -0.07000
C176        C  0.67282366  0.87151734  0.95323384     0.05000
C177        C  0.65069505  0.88528284  0.00695301    -0.14200
C178        C  0.67040334  0.86791335  0.05988634    -0.07500
C179        C  0.77458656  0.78968231  0.00323492     0.06000
C180        C  0.77323118  0.72953070  0.01130723    -0.08700
C181        C  0.81137202  0.69558747  0.00079013     0.01000
C182        C  0.85166106  0.72204878  0.98213339     0.00800
C183        C  0.85345339  0.78249662  0.97644111    -0.12200
C184        C  0.81524524  0.81638014  0.98681308     0.01300
C185        C  0.80813544  0.63351625  0.00725450     0.40600
C186        C  0.81806911  0.87835200  0.97937441     0.37200
C187        C  0.72944966  0.81908746  0.11502160     0.37000
C188        C  0.65560055  0.88871824  0.89700002     0.37700
N189        N  0.80564458  0.58373396  0.01209400    -0.43100
N190        N  0.82002564  0.92807793  0.97363968    -0.43500
N191        N  0.64202053  0.90227445  0.85174196    -0.40900
N192        N  0.74458953  0.80486156  0.15917558    -0.42300
H193        H  0.65397622  0.87787933  0.10145587     0.13800
H194        H  0.72991116  0.83031299  0.91221015     0.10300
H195        H  0.74191522  0.70893050  0.02368483     0.11400
H196        H  0.88432948  0.80291685  0.96195126     0.17200
C197        C  0.20222313  0.76954110  0.20503698    -0.01000
C198        C  0.19115620  0.76133112  0.14567719     0.07600
C199        C  0.22453123  0.76703272  0.10230875    -0.07000
C200        C  0.26894490  0.77719010  0.11705400     0.05000
C201        C  0.28099732  0.78107562  0.17679508    -0.14200
C202        C  0.24697952  0.77906556  0.22019547    -0.07500
C203        C  0.14640054  0.74202066  0.12637019     0.06000
C204        C  0.12257806  0.77749312  0.08778777    -0.08700
C205        C  0.08728584  0.75514817  0.05505758     0.01000
C206        C  0.07593132  0.69606381  0.06000734     0.00800
C207        C  0.09741473  0.66175349  0.10189304    -0.12200
C208        C  0.13222329  0.68438332  0.13540003     0.01300
C209        C  0.06499314  0.79268154  0.01416464     0.40600
C210        C  0.15502890  0.64655195  0.17559285     0.37200
C211        C  0.16836414  0.76839133  0.25084423     0.37000
C212        C  0.30121727  0.78301962  0.06957630     0.37700
N213        N  0.04685328  0.82289958  0.98174287    -0.43100
N214        N  0.17322076  0.61660610  0.20823507    -0.43500
N215        N  0.32706402  0.78777020  0.03155392    -0.40900
N216        N  0.14131315  0.76792465  0.28772329    -0.42300
H217        H  0.25544908  0.78311135  0.26612037     0.13800
H218        H  0.21599512  0.76162988  0.05649965     0.10300
H219        H  0.13335901  0.82179655  0.08068453     0.11400
H220        H  0.08842945  0.61645955  0.10625499     0.17200
C221        C  0.23892593  0.37003037  0.74731971    -0.01000
C222        C  0.23115594  0.42696187  0.76757719     0.07600
C223        C  0.26747754  0.46431722  0.77532168    -0.07000
C224        C  0.31129292  0.44509025  0.76593381     0.05000
C225        C  0.31937495  0.38691976  0.74960083    -0.14200
C226        C  0.28289193  0.35052425  0.73825659    -0.07500
C227        C  0.18611266  0.44768128  0.78565982     0.06000
C228        C  0.16567592  0.42299323  0.83552426    -0.08700
C229        C  0.12684084  0.44737351  0.86020511     0.01000
C230        C  0.10723320  0.49607585  0.83369942     0.00800
C231        C  0.12665275  0.51949214  0.78263780    -0.12200
C232        C  0.16626845  0.49629742  0.75903138     0.01300
C233        C  0.10904830  0.42384526  0.91435848     0.40600
C234        C  0.18695735  0.52438019  0.70898920     0.37200
C235        C  0.20248266  0.33074746  0.73632756     0.37000
C236        C  0.34718324  0.48623297  0.77267481     0.37700
N237        N  0.09510503  0.40535419  0.95811695    -0.43100
N238        N  0.20395324  0.54718188  0.66935167    -0.43500
N239        N  0.37587454  0.51936543  0.77764677    -0.40900
N240        N  0.17346165  0.29902351  0.72729894    -0.42300
H241        H  0.28870556  0.30603142  0.72478404     0.13800
H242        H  0.26158090  0.50834291  0.79030312     0.10300
H243        H  0.18145196  0.38652931  0.85697100     0.11400
H244        H  0.11172302  0.55734644  0.76264443     0.17200
C245        C  0.75236258  0.44657860  0.62894278    -0.01000
C246        C  0.77275662  0.49778927  0.64868702     0.07600
C247        C  0.75317266  0.55148214  0.63641405    -0.07000
C248        C  0.71207628  0.55460655  0.60825280     0.05000
C249        C  0.69005938  0.50307844  0.59169922    -0.14200
C250        C  0.71134447  0.44954218  0.60022767    -0.07500
C251        C  0.81174686  0.49673419  0.68773188     0.06000
C252        C  0.85291147  0.51803146  0.66701829    -0.08700
C253        C  0.88799100  0.52791138  0.70575656     0.01000
C254        C  0.88195875  0.51589876  0.76607060     0.00800
C255        C  0.84181360  0.49076234  0.78590705    -0.12200
C256        C  0.80649277  0.48201567  0.74748352     0.01300
C257        C  0.92837019  0.55478285  0.68358875     0.40600
C258        C  0.76378904  0.46361246  0.77134908     0.37200
C259        C  0.77230581  0.39067892  0.63955308     0.37000
C260        C  0.69313233  0.61118800  0.59745524     0.37700
N261        N  0.96074629  0.57631893  0.66579623    -0.43100
N262        N  0.72939879  0.44946000  0.79034824    -0.43500
N263        N  0.67802167  0.65651929  0.58878684    -0.40900
N264        N  0.78847710  0.34599252  0.64822572    -0.42300
H265        H  0.69483527  0.40982349  0.58736183     0.13800
H266        H  0.76914495  0.59094640  0.65119379     0.10300
H267        H  0.85672595  0.52992524  0.62117922     0.11400
H268        H  0.83681847  0.48259624  0.83242768     0.17200
C269        C  0.27873130  0.31403657  0.31500474    -0.01000
C270        C  0.24347042  0.32776667  0.27718534     0.07600
C271        C  0.24982587  0.37012522  0.23403176    -0.07000
C272        C  0.29098634  0.39859016  0.22759311     0.05000
C273        C  0.32694893  0.38441858  0.26489585    -0.14200
C274        C  0.31998806  0.34213282  0.30858004    -0.07500
C275        C  0.19982987  0.29781245  0.28204972     0.06000
C276        C  0.16480128  0.32391066  0.31416771    -0.08700
C277        C  0.12458070  0.29424706  0.32426337     0.01000
C278        C  0.11944813  0.23748731  0.30248856     0.00800
C279        C  0.15372969  0.21243420  0.26831987    -0.12200
C280        C  0.19368474  0.24231479  0.25763732     0.01300
C281        C  0.08952824  0.32178257  0.35858009     0.40600
C282        C  0.22816900  0.21504695  0.22216676     0.37200
C283        C  0.27298612  0.27170059  0.36113938     0.37000
C284        C  0.29467209  0.44286390  0.18313150     0.37700
N285        N  0.06127462  0.34362763  0.38599864    -0.43100
N286        N  0.25570464  0.19327677  0.19346012    -0.43500
N287        N  0.29746507  0.47847726  0.14757726    -0.40900
N288        N  0.26811134  0.23790762  0.39814880    -0.42300
H289        H  0.34683133  0.33080900  0.33792284     0.13800
H290        H  0.22247488  0.38092879  0.20526443     0.10300
H291        H  0.16936767  0.36679884  0.33257145     0.11400
H292        H  0.14960386  0.16894157  0.25121207     0.17200
C293        C  0.84388558  0.19310560  0.13336386    -0.01000
C294        C  0.82980035  0.25095794  0.14159000     0.07600
C295        C  0.85360352  0.28721017  0.17933788    -0.07000
C296        C  0.88911108  0.26544478  0.21200175     0.05000
C297        C  0.90108211  0.20651656  0.20688892    -0.14200
C298        C  0.87956872  0.17145731  0.16574512    -0.07500
C299        C  0.78546783  0.27018074  0.12120766     0.06000
C300        C  0.75080250  0.27332557  0.16303962    -0.08700
C301        C  0.70670358  0.28217005  0.14612796     0.01000
C302        C  0.69659049  0.28802314  0.08594116     0.00800
C303        C  0.73183785  0.28902649  0.04432739    -0.12200
C304        C  0.77617739  0.27987207  0.06159984     0.01300
C305        C  0.67252763  0.28432855  0.19165491     0.40600
C306        C  0.81149688  0.27913048  0.01771362     0.37200
C307        C  0.81945019  0.15373558  0.09646673     0.37000
C308        C  0.91018498  0.30287836  0.25414050     0.37700
N309        N  0.64509854  0.28596417  0.22803100    -0.43100
N310        N  0.84001507  0.27854508  0.98279212    -0.43500
N311        N  0.92716537  0.33278733  0.28792317    -0.40900
N312        N  0.79970155  0.12227654  0.06700986    -0.42300
H313        H  0.88848187  0.12599999  0.16227958     0.13800
H314        H  0.84245984  0.33147743  0.18618886     0.10300
H315        H  0.75806647  0.26647037  0.20904203     0.11400
H316        H  0.72459054  0.29413068  0.99813863     0.17200
C317        C  0.72367231  0.89702276  0.51887402    -0.01000
C318        C  0.72976460  0.94847343  0.48673315     0.07600
C319        C  0.69259894  0.97686260  0.46348046    -0.07000
C320        C  0.64966848  0.95342838  0.46989979     0.05000
C321        C  0.64356413  0.90062504  0.50047865    -0.14200
C322        C  0.68074803  0.87373884  0.52590554    -0.07500
C323        C  0.77494098  0.97042414  0.47198606     0.06000
C324        C  0.79913210  0.94305835  0.42660078    -0.08700
C325        C  0.84040339  0.96488060  0.40745970     0.01000
C326        C  0.85829772  0.01427127  0.43471219     0.00800
C327        C  0.83475701  0.04066300  0.48138412    -0.12200
C328        C  0.79304275  0.01937143  0.49987722     0.01300
C329        C  0.86296990  0.93735374  0.35838792     0.40600
C330        C  0.76912254  0.04875338  0.54673130     0.37200
C331        C  0.76116687  0.86706154  0.54409088     0.37000
C332        C  0.61264428  0.98480281  0.44508896     0.37700
N333        N  0.88082802  0.91528271  0.31885222    -0.43100
N334        N  0.74998974  0.07238820  0.58428489    -0.43500
N335        N  0.58301421  0.01001789  0.42522343    -0.40900
N336        N  0.79132829  0.84321101  0.56424761    -0.42300
H337        H  0.67653759  0.83342412  0.54971420     0.13800
H338        H  0.69737656  0.01662410  0.43886641     0.10300
H339        H  0.78501047  0.90560153  0.40492293     0.11400
H340        H  0.84833941  0.07908091  0.50189961     0.17200
C341        C  0.10808426  0.03469492  0.61689797    -0.01000
C342        C  0.14787289  0.00659967  0.59871567     0.07600
C343        C  0.15224242  0.98658682  0.54080722    -0.07000
C344        C  0.11941556  0.99883522  0.49967057     0.05000
C345        C  0.08152583  0.03162241  0.51648848    -0.14200
C346        C  0.07521515  0.04728388  0.57558975    -0.07500
C347        C  0.18812811  0.00532435  0.63569246     0.06000
C348        C  0.20576929  0.95191016  0.65341749    -0.08700
C349        C  0.24822077  0.94855284  0.67863774     0.01000
C350        C  0.27386123  0.99946381  0.68546530     0.00800
C351        C  0.25503997  0.05303806  0.67013390    -0.12200
C352        C  0.21268309  0.05639628  0.64550770     0.01300
C353        C  0.26556928  0.89207564  0.69312133     0.40600
C354        C  0.19651183  0.11244126  0.62709871     0.37200
C355        C  0.10131424  0.05278259  0.67705085     0.37000
C356        C  0.12649279  0.98036894  0.43966761     0.37700
N357        N  0.27909756  0.84653362  0.70454638    -0.43100
N358        N  0.18365642  0.15741181  0.61251734    -0.43500
N359        N  0.13222789  0.96544737  0.39162658    -0.40900
N360        N  0.09600216  0.06694555  0.72540374    -0.42300
H361        H  0.04589058  0.07214365  0.58863990     0.13800
H362        H  0.18269435  0.96458519  0.52683462     0.10300
H363        H  0.18707413  0.91257208  0.64527886     0.11400
H364        H  0.27415104  0.09252292  0.67563015     0.17200
loop_ 
_geom_bond_atom_site_label_1 
_geom_bond_atom_site_label_2 
_geom_bond_distance 
_geom_bond_site_symmetry_2 
_ccdc_geom_bond_type 
O1            C4   1.268       .  A
O1           Cd6   2.503       .  S
C2           O11   1.264       .  A
C2            O7   1.266       .  A
C2           C15   1.468       .  S
O3            C9   1.267       .  A
O3           Cd6   2.502   1_565  S
C4           O12   1.264       .  A
C4          C108   1.469       .  S
C5           O10   1.268       .  A
C5            O8   1.263   1_565  A
C5          C350   1.481       .  S
Cd6          O13   2.430   1_545  S
Cd6          O12   2.437       .  S
Cd6          O11   2.474   1_545  S
Cd6           O7   2.468   1_545  S
Cd6          O10   2.502   1_545  S
Cd6           O8   2.417       .  S
C9           O13   1.263       .  A
C9          C127   1.466       .  S
O14          C17   1.266       .  A
O14         Cd19   2.506       .  S
C15          O24   1.262       .  A
C15          O20   1.266       .  A
O16          C22   1.266       .  A
O16         Cd19   2.506       .  S
C17          O25   1.261       .  A
C17         C121   1.464       .  S
C18          O23   1.268       .  A
C18          O21   1.265       .  A
C18         C321   1.480       .  S
Cd19         O26   2.450       .  S
Cd19         O25   2.430       .  S
Cd19         O24   2.461       .  S
Cd19         O20   2.489       .  S
Cd19         O23   2.462       .  S
Cd19         O21   2.440       .  S
C22          O26   1.263       .  A
C22          C88   1.469       .  S
O27          C30   1.266       .  A
O27         Cd32   2.453       .  S
C28          O37   1.263       .  A
C28          O33   1.266       .  A
C28         C134   1.466       .  S
O29          C35   1.267       .  A
O29         Cd32   2.484   1_556  S
C30          O38   1.266       .  A
C30          C43   1.466       .  S
C31          O36   1.270       .  A
C31          O34   1.263       .  A
C31         C302   1.480       .  S
Cd32         O39   2.444   1_554  S
Cd32         O38   2.475       .  S
Cd32         O37   2.441       .  S
Cd32         O33   2.490       .  S
Cd32         O36   2.504       .  S
Cd32         O34   2.395       .  S
C35          O39   1.264       .  A
C35         C103   1.465       .  S
O40          C43   1.265       .  A
O40         Cd45   2.484       .  S
C41          O50   1.261       .  A
C41          O46   1.265       .  A
C41          C91   1.463       .  S
O42          C48   1.263       .  A
O42         Cd45   2.453       .  S
C43          O51   1.263       .  A
C44          O49   1.267       .  A
C44          O47   1.267       .  A
C44         C273   1.491       .  S
Cd45         O52   2.502       .  S
Cd45         O51   2.459       .  S
Cd45         O50   2.428       .  S
Cd45         O46   2.506       .  S
Cd45         O49   2.466       .  S
Cd45         O47   2.464       .  S
C48          O52   1.265       .  A
C48         C114   1.468       .  S
N53          C58   1.353       .  A
N53          C57   1.354       .  A
N53          H85   1.040       .  S
N54          C61   1.349       .  A
N54          C62   1.349   1_655  A
N55          C60   1.353       .  A
N55          C59   1.352       .  A
N55          H86   1.040       .  S
N56          C63   1.349   1_455  A
N56          C64   1.349       .  A
C57          C65   1.387       .  A
C57          C73   1.414       .  A
C58          C74   1.416       .  A
C58          C66   1.388       .  A
C59          C67   1.387       .  A
C59          C76   1.414       .  A
C60          C75   1.415       .  A
C60          C68   1.388       .  A
C61          C73   1.409       .  A
C61          C69   1.386   1_545  A
C62          C76   1.408       .  A
C62          C70   1.386   1_445  A
C63          C71   1.386       .  A
C63          C74   1.409       .  A
C64          C72   1.386       .  A
C64          C75   1.409       .  A
C65          C66   1.372       .  A
C65          H77   1.082       .  S
C66          H78   1.082       .  S
C67          C68   1.373       .  A
C67          H79   1.082       .  S
C68          H80   1.082       .  S
C69          C70   1.376       .  A
C69          H81   1.082       .  S
C70          H82   1.082   1_655  S
C71          C72   1.375   1_655  A
C71          H83   1.082       .  S
C72          H84   1.082       .  S
C73         C326   1.483       .  S
C74         C297   1.485       .  S
C75         C278   1.484       .  S
C76         C345   1.484       .  S
O87          C90   1.266       .  A
O87         Cd92   2.467       .  S
C88          O97   1.268       .  A
C88          O93   1.264       .  A
O89          C95   1.263       .  A
O89         Cd92   2.408       .  S
C90          O98   1.263       .  A
C90         C101   1.467       .  S
C91          O96   1.267       .  A
C91          O94   1.262       .  A
Cd92         O99   2.482       .  S
Cd92         O98   2.478       .  S
Cd92         O97   2.500       .  S
Cd92         O93   2.437       .  S
Cd92         O96   2.501       .  S
Cd92         O94   2.420       .  S
C95          O99   1.269       .  A
C95         C249   1.475       .  S
O100        C103   1.265       .  A
O100       Cd105   2.487       .  S
C101        O110   1.262       .  A
C101        O106   1.268       .  A
O102        C108   1.263       .  A
O102       Cd105   2.435       .  S
C103        O111   1.263       .  A
C104        O109   1.266       .  A
C104        O107   1.265       .  A
C104        C225   1.477       .  S
Cd105       O112   2.506       .  S
Cd105       O111   2.454       .  S
Cd105       O110   2.448       .  S
Cd105       O106   2.488       .  S
Cd105       O109   2.470       .  S
Cd105       O107   2.429       .  S
C108        O112   1.268       .  A
O113        C116   1.265       .  A
O113       Cd118   2.454       .  S
C114        O123   1.262       .  A
C114        O119   1.266       .  A
O115        C121   1.267       .  A
O115       Cd118   2.494       .  S
C116        O124   1.265       .  A
C116        C129   1.467       .  S
C117        O122   1.269       .  A
C117        O120   1.264       .  A
C117        C201   1.485       .  S
Cd118       O125   2.426       .  S
Cd118       O124   2.488       .  S
Cd118       O123   2.449       .  S
Cd118       O119   2.505       .  S
Cd118       O122   2.490       .  S
Cd118       O120   2.406       .  S
C121        O125   1.263       .  A
O126        C129   1.267       .  A
O126       Cd131   2.490       .  S
C127        O136   1.261       .  A
C127        O132   1.265       .  A
O128        C134   1.262       .  A
O128       Cd131   2.451   1_545  S
C129        O137   1.263       .  A
C130        O135   1.268       .  A
C130        O133   1.265   1_554  A
C130        C177   1.488       .  S
Cd131       O138   2.500   1_565  S
Cd131       O137   2.443       .  S
Cd131       O136   2.438   1_554  S
Cd131       O132   2.509   1_554  S
Cd131       O135   2.480       .  S
Cd131       O133   2.442   1_554  S
C134        O138   1.265       .  A
N139        C144   1.355       .  A
N139        C143   1.355       .  A
N139        H171   1.039       .  S
N140        C147   1.351   1_556  A
N140        C148   1.350       .  A
N141        C146   1.353       .  A
N141        C145   1.353       .  A
N141        H172   1.039       .  S
N142        C149   1.348   1_655  A
N142        C150   1.350       .  A
C143        C151   1.387       .  A
C143        C159   1.418   1_556  A
C144        C160   1.417       .  A
C144        C152   1.387       .  A
C145        C153   1.387       .  A
C145        C162   1.414       .  A
C146        C161   1.415       .  A
C146        C154   1.388       .  A
C147        C159   1.411   1_655  A
C147        C155   1.386       .  A
C148        C162   1.411       .  A
C148        C156   1.386   1_556  A
C149        C157   1.387       .  A
C149        C160   1.409       .  A
C150        C158   1.385       .  A
C150        C161   1.408       .  A
C151        C152   1.375       .  A
C151        H163   1.082       .  S
C152        H164   1.082       .  S
C153        C154   1.371       .  A
C153        H165   1.082       .  S
C154        H166   1.083       .  S
C155        C156   1.374       .  A
C155        H167   1.082       .  S
C156        H168   1.082       .  S
C157        C158   1.375   1_455  A
C157        H169   1.082       .  S
C158        H170   1.082       .  S
C159        C206   1.491       .  S
C160        C230   1.483       .  S
C161        C254   1.486       .  S
C162        C182   1.488       .  S
C173        C174   1.407       .  A
C173        C178   1.403       .  A
C173        C187   1.444       .  S
C174        C179   1.481       .  S
C174        C175   1.399   1_554  A
C175        C176   1.398       .  A
C175        H194   1.085       .  S
C176        C177   1.418   1_556  A
C176        C188   1.444       .  S
C177        C178   1.409       .  A
C178        H193   1.084       .  S
C179        C180   1.402       .  A
C179        C184   1.410   1_554  A
C180        C181   1.400       .  A
C180        H195   1.085       .  S
C181        C182   1.412   1_554  A
C181        C185   1.444       .  S
C182        C183   1.403       .  A
C183        C184   1.400       .  A
C183        H196   1.085       .  S
C184        C186   1.444       .  S
C185        N189   1.157       .  T
C186        N190   1.157       .  T
C187        N192   1.157       .  T
C188        N191   1.157       .  T
C197        C198   1.410       .  A
C197        C202   1.405       .  A
C197        C211   1.443       .  S
C198        C203   1.484       .  S
C198        C199   1.400       .  A
C199        C200   1.395       .  A
C199        H218   1.085       .  S
C200        C201   1.416       .  A
C200        C212   1.445       .  S
C201        C202   1.408       .  A
C202        H217   1.084       .  S
C203        C204   1.404       .  A
C203        C208   1.412       .  A
C204        C205   1.400       .  A
C204        H219   1.085       .  S
C205        C206   1.411       .  A
C205        C209   1.443       .  S
C206        C207   1.404       .  A
C207        C208   1.402       .  A
C207        H220   1.085       .  S
C208        C210   1.444       .  S
C209        N213   1.157   1_554  T
C210        N214   1.157       .  T
C211        N216   1.157       .  T
C212        N215   1.157       .  T
C221        C222   1.410       .  A
C221        C226   1.401       .  A
C221        C235   1.444       .  S
C222        C227   1.481       .  S
C222        C223   1.401       .  A
C223        C224   1.396       .  A
C223        H242   1.085       .  S
C224        C225   1.413       .  A
C224        C236   1.444       .  S
C225        C226   1.405       .  A
C226        H241   1.085       .  S
C227        C228   1.404       .  A
C227        C232   1.411       .  A
C228        C229   1.399       .  A
C228        H243   1.085       .  S
C229        C230   1.408       .  A
C229        C233   1.443       .  S
C230        C231   1.402       .  A
C231        C232   1.399       .  A
C231        H244   1.085       .  S
C232        C234   1.444       .  S
C233        N237   1.157       .  T
C234        N238   1.157       .  T
C235        N240   1.157       .  T
C236        N239   1.157       .  T
C245        C246   1.408       .  A
C245        C250   1.401       .  A
C245        C259   1.443       .  S
C246        C251   1.478       .  S
C246        C247   1.400       .  A
C247        C248   1.397       .  A
C247        H266   1.085       .  S
C248        C249   1.414       .  A
C248        C260   1.446       .  S
C249        C250   1.404       .  A
C250        H265   1.084       .  S
C251        C252   1.402       .  A
C251        C256   1.410       .  A
C252        C253   1.400       .  A
C252        H267   1.085       .  S
C253        C254   1.411       .  A
C253        C257   1.443       .  S
C254        C255   1.403       .  A
C255        C256   1.397       .  A
C255        H268   1.085       .  S
C256        C258   1.445       .  S
C257        N261   1.157       .  T
C258        N262   1.157       .  T
C259        N264   1.157       .  T
C260        N263   1.158       .  T
C269        C270   1.408       .  A
C269        C274   1.401       .  A
C269        C283   1.445       .  S
C270        C275   1.481       .  S
C270        C271   1.399       .  A
C271        C272   1.402       .  A
C271        H290   1.085       .  S
C272        C273   1.419       .  A
C272        C284   1.443       .  S
C273        C274   1.409       .  A
C274        H289   1.084       .  S
C275        C276   1.403       .  A
C275        C280   1.410       .  A
C276        C277   1.401       .  A
C276        H291   1.085       .  S
C277        C278   1.410       .  A
C277        C281   1.444       .  S
C278        C279   1.401       .  A
C279        C280   1.399       .  A
C279        H292   1.085       .  S
C280        C282   1.443       .  S
C281        N285   1.157       .  T
C282        N286   1.157       .  T
C283        N288   1.157       .  T
C284        N287   1.157       .  T
C293        C294   1.411       .  A
C293        C298   1.398       .  A
C293        C307   1.444       .  S
C294        C299   1.479       .  S
C294        C295   1.402       .  A
C295        C296   1.399       .  A
C295        H314   1.085       .  S
C296        C297   1.410       .  A
C296        C308   1.444       .  S
C297        C298   1.402       .  A
C298        H313   1.085       .  S
C299        C300   1.399       .  A
C299        C304   1.409       .  A
C300        C301   1.394       .  A
C300        H315   1.085       .  S
C301        C302   1.415       .  A
C301        C305   1.445       .  S
C302        C303   1.407       .  A
C303        C304   1.404       .  A
C303        H316   1.084   1_554  S
C304        C306   1.443       .  S
C305        N309   1.157       .  T
C306        N310   1.157   1_554  T
C307        N312   1.157       .  T
C308        N311   1.157       .  T
C317        C318   1.407       .  A
C317        C322   1.399       .  A
C317        C331   1.443       .  S
C318        C323   1.478       .  S
C318        C319   1.400       .  A
C319        C320   1.400       .  A
C319        H338   1.085   1_565  S
C320        C321   1.416       .  A
C320        C332   1.445       .  S
C321        C322   1.405       .  A
C322        H337   1.085       .  S
C323        C324   1.402       .  A
C323        C328   1.409   1_565  A
C324        C325   1.398       .  A
C324        H339   1.085       .  S
C325        C326   1.408   1_565  A
C325        C329   1.443       .  S
C326        C327   1.404       .  A
C327        C328   1.401       .  A
C327        H340   1.085       .  S
C328        C330   1.443       .  S
C329        N333   1.157       .  T
C330        N334   1.157       .  T
C331        N336   1.157       .  T
C332        N335   1.157   1_565  T
C341        C342   1.410       .  A
C341        C346   1.402       .  A
C341        C355   1.443       .  S
C342        C347   1.480       .  S
C342        C343   1.401   1_545  A
C343        C344   1.396       .  A
C343        H362   1.085       .  S
C344        C345   1.409   1_565  A
C344        C356   1.444       .  S
C345        C346   1.404       .  A
C346        H361   1.084       .  S
C347        C348   1.403   1_545  A
C347        C352   1.410       .  A
C348        C349   1.403       .  A
C348        H363   1.085       .  S
C349        C350   1.414       .  A
C349        C353   1.443       .  S
C350        C351   1.405   1_565  A
C351        C352   1.395       .  A
C351        H364   1.085       .  S
C352        C354   1.445       .  S
C353        N357   1.157       .  T
C354        N358   1.157       .  T
C355        N360   1.157       .  T
C356        N359   1.157       .  T
