geometry optimzed in LAMMPS
_audit_creation_date              2020-12-01 
_audit_creation_method            'lammps2cif' 
_symmetry_space_group_name_H-M    'P1' 
_symmetry_Int_Tables_number       1 
_symmetry_cell_setting            triclinic 
loop_ 
_symmetry_equiv_pos_as_xyz 
  x,y,z 
_cell_length_a                    33.56405133 
_cell_length_b                    34.73427770180268 
_cell_length_c                    36.0359270693038 
_cell_angle_alpha                 87.50475611316791 
_cell_angle_beta                  90.0273554840039 
_cell_angle_gamma                 90.05794314090751 
loop_ 
_atom_site_label 
_atom_site_type_symbol 
_atom_site_fract_x 
_atom_site_fract_y 
_atom_site_fract_z 
_atom_site_charge 
C1          C  0.50992511  0.46943909  0.96832960     0.86500
C2          C  0.47465577  0.45657745  0.99364107    -0.53800
C3          C  0.45959957  0.48438027  0.01565638     0.09400
C4          C  0.48194842  0.52313748  0.01001072     0.20400
C5          C  0.49520859  0.50476477  0.94632685    -0.54500
C6          C  0.48056171  0.53296042  0.96724202     0.09500
C7          C  0.54004761  0.48501380  0.99645720    -0.54000
C8          C  0.52597987  0.51285459  0.01896163     0.10100
H9          H  0.46318688  0.42735790  0.99477640     0.14600
H10         H  0.46977004  0.54530866  0.02763970     0.00300
H11         H  0.49649048  0.50747733  0.91617998     0.14900
H12         H  0.56986826  0.47372763  0.99950254     0.14700
N13         N  0.30294711  0.90341140  0.73258989    -0.27300
N14         N  0.31515835  0.93932175  0.72610471    -0.35200
C15         C  0.28749909  0.95856344  0.70558765     0.01000
C16         C  0.25644464  0.93363475  0.69878555     0.07100
C17         C  0.26723259  0.89891164  0.71627558    -0.06000
H18         H  0.29048930  0.98812548  0.69511691     0.07700
H19         H  0.25086900  0.87208108  0.71619922     0.08900
Cu20       Cu  0.37063150  0.95971041  0.74210576     0.44200
Cu21       Cu  0.33642054  0.86136876  0.76140764     0.42000
Cu22       Cu  0.43851709  0.88766946  0.78046291     0.43900
N23         N  0.43001346  0.97091330  0.75435132    -0.34700
N24         N  0.45531515  0.94393117  0.76624774    -0.28900
C25         C  0.49181779  0.95958236  0.76913126    -0.05000
C26         C  0.48921931  0.99837681  0.75918429     0.07200
C27         C  0.44961746  0.00466953  0.75013907     0.01000
H28         H  0.51808016  0.94406201  0.77869357     0.08600
H29         H  0.43619952  0.03160686  0.74054201     0.07700
N30         N  0.41363840  0.83492699  0.79704684    -0.36100
N31         N  0.37625989  0.82524582  0.79040363    -0.28300
C32         C  0.36931124  0.78978945  0.80573598    -0.03600
C33         C  0.40399388  0.77672064  0.82275520     0.05100
C34         C  0.43146458  0.80597621  0.81673650     0.03100
H35         H  0.34110734  0.77476529  0.80475772     0.08300
H36         H  0.46198023  0.80634806  0.82626264     0.07100
N37         N  0.63505589  0.19585557  0.79532186    -0.27300
N38         N  0.59683326  0.18651755  0.79702121    -0.35200
C39         C  0.57669453  0.21422599  0.81391400     0.00000
C40         C  0.60333570  0.24250447  0.82316750     0.07100
C41         C  0.64011067  0.23009873  0.81100960    -0.06000
H42         H  0.54506998  0.21356018  0.81951803     0.07700
H43         H  0.66843186  0.24455540  0.81387653     0.08900
Cu44       Cu  0.57276593  0.13590830  0.77840434     0.44200
Cu45       Cu  0.67839460  0.16068571  0.77250147     0.42000
Cu46       Cu  0.64129139  0.06604099  0.74764188     0.43900
N47         N  0.55543789  0.08093400  0.76516871    -0.34700
N48         N  0.58120323  0.05421798  0.75606822    -0.28900
C49         C  0.56167439  0.02070028  0.75249323    -0.05000
C50         C  0.52161457  0.02694337  0.75904918     0.07200
C51         C  0.51867198  0.06545864  0.76684038     0.01000
H52         H  0.57551754  0.99393960  0.74529677     0.08600
H53         H  0.49205448  0.08075799  0.77444924     0.07700
N54         N  0.69839977  0.08631037  0.73592160    -0.36100
N55         N  0.71248795  0.12008081  0.74542149    -0.28300
C56         C  0.74971328  0.12438352  0.73174327    -0.03600
C57         C  0.75923766  0.09205178  0.71218611     0.05100
C58         C  0.72590968  0.06865066  0.71560067     0.03100
H59         H  0.76794068  0.14975309  0.73478064     0.08300
H60         H  0.72135975  0.04134452  0.70291347     0.07100
N61         N  0.18595607  0.38597062  0.22745035    -0.27300
N62         N  0.17472680  0.42228016  0.22180167    -0.35200
C63         C  0.20187380  0.44092781  0.20021977     0.01000
C64         C  0.23157869  0.41524555  0.19171984     0.07100
C65         C  0.22057981  0.38061962  0.20938579    -0.06000
H66         H  0.19957880  0.47078297  0.19049630     0.07700
H67         H  0.23622511  0.35343259  0.20861667     0.08900
Cu68       Cu  0.12101019  0.44434124  0.24030379     0.44200
Cu69       Cu  0.15205984  0.34530314  0.25804396     0.42000
Cu70       Cu  0.04999836  0.37552177  0.27778740     0.43900
N71         N  0.06233661  0.45847091  0.25236899    -0.34700
N72         N  0.03549531  0.43272644  0.26385801    -0.28900
C73         C  0.99973623  0.45016104  0.26583847    -0.05000
C74         C  0.00450373  0.48881778  0.25569769     0.07200
C75         C  0.04459104  0.49308066  0.24752623     0.01000
H76         H  0.97241267  0.43588946  0.27460272     0.08600
H77         H  0.05953902  0.51918053  0.23773709     0.07700
N78         N  0.07359790  0.32188506  0.29415727    -0.36100
N79         N  0.11068237  0.31108515  0.28764804    -0.28300
C80         C  0.11649229  0.27559530  0.30335291    -0.03600
C81         C  0.08142938  0.26348528  0.32042173     0.05100
C82         C  0.05491404  0.29352330  0.31402080     0.03100
H83         H  0.14427593  0.25983657  0.30261387     0.08300
H84         H  0.02448848  0.29492009  0.32367008     0.07100
N85         N  0.86894648  0.69509330  0.27894450    -0.27300
N86         N  0.90672361  0.68463768  0.28246070    -0.35200
C87         C  0.92641009  0.71120187  0.30149623     0.01000
C88         C  0.89987076  0.73973587  0.31051043     0.07100
C89         C  0.86368581  0.72861597  0.29580925    -0.06000
H90         H  0.95742604  0.70911673  0.30950631     0.07700
H91         H  0.83545296  0.74328296  0.29806749     0.08900
Cu92       Cu  0.92950298  0.63263718  0.26530740     0.44200
Cu93       Cu  0.82576525  0.66216467  0.25299964     0.42000
Cu94       Cu  0.85726206  0.56477989  0.23411275     0.43900
N95         N  0.94326610  0.57558642  0.25553408    -0.34700
N96         N  0.91616632  0.54993778  0.24654705    -0.28900
C97         C  0.93358977  0.51503948  0.24558558    -0.05000
C98         C  0.97367408  0.51911294  0.25373004     0.07200
C99         C  0.97877564  0.55789954  0.25969205     0.01000
H100        H  0.91837144  0.48878491  0.23877299     0.08600
H101        H  0.00606865  0.57203690  0.26750877     0.07700
N102        N  0.80212890  0.58784875  0.21815513    -0.36100
N103        N  0.79038117  0.62321635  0.22503116    -0.28300
C104        C  0.75426185  0.62943531  0.20942827    -0.03600
C105        C  0.74290004  0.59647571  0.19183906     0.05100
C106        C  0.77396539  0.57082204  0.19789364     0.03100
H107        H  0.73803546  0.65630800  0.20986453     0.08300
H108        H  0.77633926  0.54213185  0.18749740     0.07100
C109        C  0.97570303  0.95745241  0.47773787     0.86500
C110        C  0.94630262  0.97336504  0.50605920    -0.53800
C111        C  0.95966650  0.00467070  0.52456572     0.09400
C112        C  0.00260051  0.01662062  0.51327269     0.20400
C113        C  0.98766585  0.99240463  0.45250899    -0.54500
C114        C  0.00179168  0.02330321  0.47059426     0.09500
C115        C  0.01437374  0.94949762  0.50019329    -0.54000
C116        C  0.02756315  0.97969929  0.51994465     0.10100
H117        H  0.91719715  0.96053123  0.51113525     0.14600
H118        H  0.01435938  0.04182218  0.52759216     0.00300
H119        H  0.98625306  0.99234415  0.42241630     0.14900
H120        H  0.03113431  0.92293447  0.50017661     0.14700
C121        C  0.90803090  0.77268989  0.33423589     0.01300
C122        C  0.89116251  0.77367237  0.37003545     0.04200
C123        C  0.90042037  0.80405563  0.39323162    -0.11900
C124        C  0.92741507  0.83318487  0.38120783     0.23400
C125        C  0.94393777  0.83245647  0.34525163    -0.12500
C126        C  0.93398738  0.80248452  0.32173073     0.04900
C127        C  0.93819725  0.86446786  0.40649710     0.27300
C128        C  0.92025249  0.90094343  0.40223076    -0.13200
C129        C  0.93046822  0.93052604  0.42624199     0.05400
C130        C  0.95836482  0.92361352  0.45576608    -0.09100
C131        C  0.96974136  0.88462745  0.46347490     0.06200
C132        C  0.96328962  0.85657101  0.43709693    -0.13500
Br133      Br  0.98043883  0.87244335  0.32839759    -0.05600
Br134      Br  0.85676547  0.73246194  0.38815436     0.00000
Br135      Br  0.90306712  0.97909895  0.41912783     0.00500
Br136      Br  0.98839363  0.80670208  0.44345602    -0.03900
Br137      Br  0.95486470  0.80288710  0.27184498     0.00600
Br138      Br  0.87594474  0.80593706  0.44160794    -0.03200
Br139      Br  0.88104781  0.90986388  0.36347769    -0.04100
Br140      Br  0.98107439  0.86536010  0.51334069    -0.00100
C141        C  0.07391027  0.22692521  0.34211318     0.01300
C142        C  0.04642357  0.19989851  0.32901875     0.04200
C143        C  0.03780669  0.16600847  0.35040494    -0.11900
C144        C  0.05632783  0.15906855  0.38516772     0.23400
C145        C  0.08433595  0.18566022  0.39801273    -0.12500
C146        C  0.09314079  0.21949921  0.37654171     0.04900
C147        C  0.04472814  0.12469108  0.40881849     0.27300
C148        C  0.01581749  0.12822618  0.43674172    -0.13200
C149        C  0.00231588  0.09539323  0.45737324     0.05400
C150        C  0.01756102  0.05851189  0.45012964    -0.09100
C151        C  0.04737597  0.05526436  0.42246965     0.06200
C152        C  0.06101267  0.08831740  0.40221358    -0.13500
Br153      Br  0.10987416  0.17589392  0.44547641    -0.05600
Br154      Br  0.02085346  0.20897998  0.28149017     0.00000
Br155      Br  0.96090116  0.10157543  0.49360007     0.00500
Br156      Br  0.10210789  0.08410005  0.36513242    -0.03900
Br157      Br  0.12990678  0.25664699  0.39536702     0.00600
Br158      Br  0.00006479  0.12916072  0.33246487    -0.03200
Br159      Br  0.99393370  0.17834949  0.44591020    -0.04100
Br160      Br  0.07104939  0.00598924  0.41250949    -0.00100
C161        C  0.79482051  0.08473574  0.68880260     0.01300
C162        C  0.81431337  0.04869640  0.69232768     0.04200
C163        C  0.84288206  0.03836132  0.66594703    -0.11900
C164        C  0.85387416  0.06473959  0.63688270     0.23400
C165        C  0.83721757  0.10204709  0.63529986    -0.12500
C166        C  0.80719578  0.11181588  0.66061358     0.04900
C167        C  0.88191950  0.05273974  0.60741162     0.27300
C168        C  0.92280035  0.04837566  0.61506074    -0.13200
C169        C  0.94875304  0.03382331  0.58819840     0.05400
C170        C  0.93415815  0.02450944  0.55257215    -0.09100
C171        C  0.89371490  0.03309280  0.54410634     0.06200
C172        C  0.86752474  0.04530007  0.57175138    -0.13500
Br173      Br  0.85514667  0.13951045  0.59775144    -0.05600
Br174      Br  0.80315862  0.01375990  0.73420074     0.00000
Br175      Br  0.00356288  0.02686193  0.60239375     0.00500
Br176      Br  0.81130217  0.05069004  0.56102851    -0.03900
Br177      Br  0.78155916  0.16139190  0.65434883     0.00600
Br178      Br  0.86602596  0.98740473  0.66895662    -0.03200
Br179      Br  0.94292433  0.06191374  0.66311350    -0.04100
Br180      Br  0.87416155  0.03255016  0.49384872    -0.00100
C181        C  0.22156295  0.94131545  0.67436145     0.01300
C182        C  0.19169863  0.96733670  0.68470404     0.04200
C183        C  0.15898282  0.97518313  0.66097702    -0.11900
C184        C  0.15589941  0.95683422  0.62693966     0.23400
C185        C  0.18543410  0.93044113  0.61689741    -0.12500
C186        C  0.21837678  0.92302223  0.64029113     0.04900
C187        C  0.12190992  0.96510961  0.60127972     0.27300
C188        C  0.08611226  0.94432059  0.60560539    -0.13200
C189        C  0.05535356  0.94939158  0.57925501     0.05400
C190        C  0.06024791  0.97522183  0.54802786    -0.09100
C191        C  0.09569262  0.99704746  0.54460788     0.06200
C192        C  0.12636425  0.99195863  0.57112665    -0.13500
Br193      Br  0.18048562  0.90436891  0.57088772    -0.05600
Br194      Br  0.19511104  0.99142382  0.73183964     0.00000
Br195      Br  0.00524155  0.92331147  0.58824364     0.00500
Br196      Br  0.17506586  0.02132089  0.56609582    -0.03900
Br197      Br  0.26014861  0.88926434  0.62456913     0.00600
Br198      Br  0.11825359  0.01088953  0.67497887    -0.03200
Br199      Br  0.07944921  0.90877090  0.64783918    -0.04100
Br200      Br  0.10334996  0.03317320  0.50329421    -0.00100
C201        C  0.26627994  0.42323658  0.16713458     0.01300
C202        C  0.26596623  0.41151293  0.13014323     0.04200
C203        C  0.29772900  0.42167129  0.10601755    -0.11900
C204        C  0.32996395  0.44359110  0.11875509     0.23400
C205        C  0.33051177  0.45483748  0.15588509    -0.12500
C206        C  0.29882955  0.44459298  0.18001390     0.04900
C207        C  0.36338340  0.45478209  0.09320852     0.27300
C208        C  0.39743106  0.43148225  0.09171064    -0.13200
C209        C  0.42928577  0.44202573  0.06785073     0.05400
C210        C  0.42727612  0.47595729  0.04426479    -0.09100
C211        C  0.39363822  0.50051697  0.04787783     0.06200
C212        C  0.36167789  0.48938390  0.07155120    -0.13500
Br213      Br  0.37462461  0.48470181  0.17342704    -0.05600
Br214      Br  0.22141088  0.38252728  0.11222614     0.00000
Br215      Br  0.47671149  0.41081134  0.07096805     0.00500
Br216      Br  0.31468903  0.52127409  0.07437575    -0.03900
Br217      Br  0.30023782  0.45924100  0.23100848     0.00600
Br218      Br  0.29700073  0.40617638  0.05527284    -0.03200
Br219      Br  0.40008680  0.38478643  0.12280734    -0.04100
Br220      Br  0.38978102  0.55009381  0.02208795    -0.00100
C221        C  0.55097206  0.52822105  0.05035387     0.01300
C222        C  0.57669475  0.50282808  0.07145410     0.04200
C223        C  0.60535718  0.51736490  0.09575232    -0.11900
C224        C  0.60753174  0.55695614  0.10152490     0.23400
C225        C  0.57971095  0.58201351  0.08420761    -0.12500
C226        C  0.55163790  0.56808913  0.05865901     0.04900
C227        C  0.64057394  0.57195810  0.12454405     0.27300
C228        C  0.63656458  0.57352281  0.16341195    -0.13200
C229        C  0.66976939  0.58265894  0.18543964     0.05400
C230        C  0.70703004  0.59057381  0.16866536    -0.09100
C231        C  0.71053431  0.59057193  0.12966310     0.06200
C232        C  0.67748990  0.58110930  0.10771363    -0.13500
Br233      Br  0.58120583  0.63592328  0.09533164    -0.05600
Br234      Br  0.57229315  0.44739863  0.07054187     0.00000
Br235      Br  0.66484976  0.58218217  0.23875724     0.00500
Br236      Br  0.68302986  0.57893528  0.05453623    -0.03900
Br237      Br  0.51591017  0.60556003  0.03583633     0.00600
Br238      Br  0.64295444  0.48304449  0.12098375    -0.03200
Br239      Br  0.58591429  0.56155288  0.18637652    -0.04100
Br240      Br  0.76078018  0.60336040  0.10625852    -0.00100
C241        C  0.59392984  0.27748387  0.84336090     0.01300
C242        C  0.58789061  0.27480292  0.88209741     0.04200
C243        C  0.57549126  0.30733764  0.90099222    -0.11900
C244        C  0.56924719  0.34271561  0.88126028     0.23400
C245        C  0.57613895  0.34563636  0.84262502    -0.12500
C246        C  0.58820274  0.31299007  0.82367540     0.04900
C247        C  0.55419402  0.37646753  0.90101693     0.27300
C248        C  0.51298760  0.38223592  0.90475048    -0.13200
C249        C  0.49854222  0.41372776  0.92414256     0.05400
C250        C  0.52550183  0.43864236  0.94213240    -0.09100
C251        C  0.56643844  0.43651485  0.93176197     0.06200
C252        C  0.58084655  0.40413985  0.91373676    -0.13500
Br253      Br  0.56820847  0.39425399  0.81569783    -0.05600
Br254      Br  0.59636860  0.22639706  0.90920711     0.00000
Br255      Br  0.44220329  0.42504083  0.92028411     0.00500
Br256      Br  0.63728180  0.39794272  0.90545147    -0.03900
Br257      Br  0.59515041  0.31637380  0.77051012     0.00600
Br258      Br  0.56636087  0.30354583  0.95387315    -0.03200
Br259      Br  0.47640621  0.34699400  0.88243899    -0.04100
Br260      Br  0.60138089  0.48086040  0.93236784    -0.00100
C261        C  0.46621078  0.56922749  0.94831423     0.01300
C262        C  0.42782826  0.57075315  0.93208529     0.04200
C263        C  0.41508741  0.60429278  0.91208768    -0.11900
C264        C  0.44134790  0.63563707  0.90639170     0.23400
C265        C  0.48082504  0.63269674  0.91951941    -0.12500
C266        C  0.49357944  0.59908405  0.93928689     0.04900
C267        C  0.42862833  0.67066175  0.88428843     0.27300
C268        C  0.43683504  0.67407594  0.84589682    -0.13200
C269        C  0.42797000  0.70856315  0.82558849     0.05400
C270        C  0.41062920  0.73965095  0.84350834    -0.09100
C271        C  0.40127932  0.73583406  0.88161619     0.06200
C272        C  0.41017892  0.70135004  0.90195904    -0.13500
Br273      Br  0.51791628  0.67419058  0.90878853    -0.05600
Br274      Br  0.39497910  0.52505548  0.93204159     0.00000
Br275      Br  0.44010754  0.71358227  0.77328673     0.00500
Br276      Br  0.39794276  0.69620653  0.95422475    -0.03900
Br277      Br  0.54985052  0.59130243  0.94808371     0.00600
Br278      Br  0.36236826  0.60677219  0.89077160    -0.03200
Br279      Br  0.46088270  0.63161800  0.82140227    -0.04100
Br280      Br  0.37749000  0.77838105  0.90612875    -0.00100
loop_ 
_geom_bond_atom_site_label_1 
_geom_bond_atom_site_label_2 
_geom_bond_distance 
_geom_bond_site_symmetry_2 
_ccdc_geom_bond_type 
C1            C2   1.548       .  S
C1            C7   1.545       .  S
C1            C5   1.515       .  S
C1          C250   1.549       .  S
C2            H9   1.084       .  S
C2            C3   1.373   1_556  D
C3            C4   1.546       .  S
C3          C210   1.516       .  S
C4            C8   1.551       .  S
C4            C6   1.565   1_554  S
C4           H10   1.099       .  S
C5           H11   1.087       .  S
C5            C6   1.354       .  D
C6          C261   1.487       .  S
C7           H12   1.079       .  S
C7            C8   1.373   1_556  D
C8          C221   1.523       .  S
N13          N14   1.324       .  A
N13          C17   1.347       .  A
N13         Cu21   2.084       .  S
N14          C15   1.346       .  A
N14         Cu20   2.081       .  S
C15          C16   1.383       .  A
C15          H18   1.083       .  S
C16          C17   1.385       .  A
C16         C181   1.482       .  S
C17          H19   1.081       .  S
Cu20         N23   2.081       .  S
Cu21         N31   2.084       .  S
Cu22         N24   2.076       .  S
Cu22         N30   2.077       .  S
N23          N24   1.323       .  A
N23          C27   1.347   1_565  A
N24          C25   1.346       .  A
C25          C26   1.382       .  A
C25          H28   1.082       .  S
C26          C27   1.384   1_565  A
C26          C50   1.471   1_565  S
C27          H29   1.082       .  S
N30          N31   1.323       .  A
N30          C34   1.346       .  A
N31          C32   1.348       .  A
C32          C33   1.383       .  A
C32          H35   1.082       .  S
C33          C34   1.382       .  A
C33         C270   1.478       .  S
C34          H36   1.080       .  S
N37          N38   1.324       .  A
N37          C41   1.349       .  A
N37         Cu45   2.092       .  S
N38          C39   1.344       .  A
N38         Cu44   2.072       .  S
C39          C40   1.379       .  A
C39          H42   1.081       .  S
C40          C41   1.385       .  A
C40         C241   1.478       .  S
C41          H43   1.082       .  S
Cu44         N47   2.071       .  S
Cu45         N55   2.092       .  S
Cu46         N48   2.078       .  S
Cu46         N54   2.079       .  S
N47          N48   1.321       .  A
N47          C51   1.346       .  A
N48          C49   1.346       .  A
C49          C50   1.384       .  A
C49          H52   1.081   1_545  S
C50          C51   1.382       .  A
C51          H53   1.081       .  S
N54          N55   1.323       .  A
N54          C58   1.344       .  A
N55          C56   1.349       .  A
C56          C57   1.389       .  A
C56          H59   1.082       .  S
C57          C58   1.384       .  A
C57         C161   1.490       .  S
C58          H60   1.081       .  S
N61          N62   1.324       .  A
N61          C65   1.349       .  A
N61         Cu69   2.090       .  S
N62          C63   1.345       .  A
N62         Cu68   2.081       .  S
C63          C64   1.382       .  A
C63          H66   1.083       .  S
C64          C65   1.386       .  A
C64         C201   1.482       .  S
C65          H67   1.082       .  S
Cu68         N71   2.081       .  S
Cu69         N79   2.090       .  S
Cu70         N72   2.086       .  S
Cu70         N78   2.086       .  S
N71          N72   1.323       .  A
N71          C75   1.347       .  A
N72          C73   1.348   1_455  A
C73          C74   1.385   1_655  A
C73          H76   1.083       .  S
C74          C75   1.384       .  A
C74          C98   1.476   1_455  S
C75          H77   1.081       .  S
N78          N79   1.324       .  A
N78          C82   1.347       .  A
N79          C80   1.348       .  A
C80          C81   1.385       .  A
C80          H83   1.083       .  S
C81          C82   1.384       .  A
C81         C141   1.483       .  S
C82          H84   1.081       .  S
N85          N86   1.324       .  A
N85          C89   1.348       .  A
N85         Cu93   2.091       .  S
N86          C87   1.346       .  A
N86         Cu92   2.081       .  S
C87          C88   1.383       .  A
C87          H90   1.082       .  S
C88          C89   1.386       .  A
C88         C121   1.483       .  S
C89          H91   1.081       .  S
Cu92         N95   2.080       .  S
Cu93        N103   2.091       .  S
Cu94         N96   2.087       .  S
Cu94        N102   2.088       .  S
N95          N96   1.323       .  A
N95          C99   1.347       .  A
N96          C97   1.348       .  A
C97          C98   1.385       .  A
C97         H100   1.082       .  S
C98          C99   1.384       .  A
C99         H101   1.082   1_655  S
N102        N103   1.324       .  A
N102        C106   1.346       .  A
N103        C104   1.350       .  A
C104        C105   1.386       .  A
C104        H107   1.082       .  S
C105        C106   1.383       .  A
C105        C230   1.484       .  S
C106        H108   1.083       .  S
C109        C110   1.540       .  S
C109        C115   1.548   1_655  S
C109        C113   1.538       .  S
C109        C130   1.558       .  S
C110        H117   1.086       .  S
C110        C111   1.375   1_565  D
C111        C112   1.549   1_655  S
C111        C170   1.513       .  S
C112        C116   1.543   1_545  S
C112        C114   1.546       .  S
C112        H118   1.108       .  S
C113        H119   1.086       .  S
C113        C114   1.364   1_665  D
C114        C150   1.497       .  S
C115        H120   1.081       .  S
C115        C116   1.366       .  D
C116        C190   1.496       .  S
C121        C122   1.411       .  A
C121        C126   1.411       .  A
C122        C123   1.409       .  A
C122       Br134   1.930       .  S
C123        C124   1.412       .  A
C123       Br138   1.931       .  S
C124        C125   1.411       .  A
C124        C127   1.492       .  S
C125        C126   1.411       .  A
C125       Br133   1.929       .  S
C126       Br137   1.929       .  S
C127        C128   1.406       .  A
C127        C132   1.405       .  A
C128        C129   1.414       .  A
C128       Br139   1.934       .  S
C129        C130   1.430       .  A
C129       Br135   1.930       .  S
C130        C131   1.423       .  A
C131        C132   1.407       .  A
C131       Br140   1.928       .  S
C132       Br136   1.932       .  S
C141        C142   1.411       .  A
C141        C146   1.412       .  A
C142        C143   1.408       .  A
C142       Br154   1.929       .  S
C143        C144   1.410       .  A
C143       Br158   1.931       .  S
C144        C145   1.409       .  A
C144        C147   1.488       .  S
C145        C146   1.410       .  A
C145       Br153   1.930       .  S
C146       Br157   1.929       .  S
C147        C148   1.408       .  A
C147        C152   1.407       .  A
C148        C149   1.409       .  A
C148       Br159   1.932   1_455  S
C149        C150   1.415       .  A
C149       Br155   1.926   1_455  S
C150        C151   1.421       .  A
C151        C152   1.409       .  A
C151       Br160   1.935       .  S
C152       Br156   1.931       .  S
C161        C162   1.414       .  A
C161        C166   1.416       .  A
C162        C163   1.408       .  A
C162       Br174   1.931       .  S
C163        C164   1.410       .  A
C163       Br178   1.932   1_545  S
C164        C165   1.411       .  A
C164        C167   1.493       .  S
C165        C166   1.411       .  A
C165       Br173   1.932       .  S
C166       Br177   1.930       .  S
C167        C168   1.406       .  A
C167        C172   1.407       .  A
C168        C169   1.413       .  A
C168       Br179   1.935       .  S
C169        C170   1.424       .  A
C169       Br175   1.922   1_655  S
C170        C171   1.420       .  A
C171        C172   1.408       .  A
C171       Br180   1.927       .  S
C172       Br176   1.934       .  S
C181        C182   1.411       .  A
C181        C186   1.411       .  A
C182        C183   1.411       .  A
C182       Br194   1.929       .  S
C183        C184   1.410       .  A
C183       Br198   1.929   1_565  S
C184        C185   1.409       .  A
C184        C187   1.489       .  S
C185        C186   1.407       .  A
C185       Br193   1.931       .  S
C186       Br197   1.930       .  S
C187        C188   1.406       .  A
C187        C192   1.409       .  A
C188        C189   1.408       .  A
C188       Br199   1.931       .  S
C189        C190   1.418       .  A
C189       Br195   1.930       .  S
C190        C191   1.413       .  A
C191        C192   1.410       .  A
C191       Br200   1.922   1_565  S
C192       Br196   1.930   1_565  S
C201        C202   1.411       .  A
C201        C206   1.410       .  A
C202        C203   1.411       .  A
C202       Br214   1.929       .  S
C203        C204   1.410       .  A
C203       Br218   1.929       .  S
C204        C205   1.410       .  A
C204        C207   1.492       .  S
C205        C206   1.409       .  A
C205       Br213   1.929       .  S
C206       Br217   1.929       .  S
C207        C208   1.403       .  A
C207        C212   1.405       .  A
C208        C209   1.410       .  A
C208       Br219   1.933       .  S
C209        C210   1.424       .  A
C209       Br215   1.927       .  S
C210        C211   1.425       .  A
C211        C212   1.414       .  A
C211       Br220   1.925       .  S
C212       Br216   1.933       .  S
C221        C222   1.430       .  A
C221        C226   1.430       .  A
C222        C223   1.408       .  A
C222       Br234   1.933       .  S
C223        C224   1.402       .  A
C223       Br238   1.936       .  S
C224        C225   1.405       .  A
C224        C227   1.492       .  S
C225        C226   1.416       .  A
C225       Br233   1.933       .  S
C226       Br237   1.928       .  S
C227        C228   1.411       .  A
C227        C232   1.410       .  A
C228        C229   1.412       .  A
C228       Br239   1.928       .  S
C229        C230   1.411       .  A
C229       Br235   1.928       .  S
C230        C231   1.410       .  A
C231        C232   1.409       .  A
C231       Br240   1.929       .  S
C232       Br236   1.930       .  S
C241        C242   1.410       .  A
C241        C246   1.409       .  A
C242        C243   1.408       .  A
C242       Br254   1.929       .  S
C243        C244   1.408       .  A
C243       Br258   1.929       .  S
C244        C245   1.411       .  A
C244        C247   1.487       .  S
C245        C246   1.409       .  A
C245       Br253   1.929       .  S
C246       Br257   1.929       .  S
C247        C248   1.405       .  A
C247        C252   1.404       .  A
C248        C249   1.410       .  A
C248       Br259   1.932       .  S
C249        C250   1.426       .  A
C249       Br255   1.935       .  S
C250        C251   1.427       .  A
C251        C252   1.409       .  A
C251       Br260   1.936       .  S
C252       Br256   1.931       .  S
C261        C262   1.415       .  A
C261        C266   1.412       .  A
C262        C263   1.410       .  A
C262       Br274   1.932       .  S
C263        C264   1.408       .  A
C263       Br278   1.929       .  S
C264        C265   1.409       .  A
C264        C267   1.488       .  S
C265        C266   1.408       .  A
C265       Br273   1.930       .  S
C266       Br277   1.932       .  S
C267        C268   1.411       .  A
C267        C272   1.409       .  A
C268        C269   1.408       .  A
C268       Br279   1.929       .  S
C269        C270   1.409       .  A
C269       Br275   1.929       .  S
C270        C271   1.409       .  A
C271        C272   1.409       .  A
C271       Br280   1.928       .  S
C272       Br276   1.929       .  S
