geometry optimzed in LAMMPS
_audit_creation_date              2020-12-01 
_audit_creation_method            'lammps2cif' 
_symmetry_space_group_name_H-M    'P1' 
_symmetry_Int_Tables_number       1 
_symmetry_cell_setting            triclinic 
loop_ 
_symmetry_equiv_pos_as_xyz 
  x,y,z 
_cell_length_a                    31.88461808 
_cell_length_b                    31.8324249776716 
_cell_length_c                    35.20851998511433 
_cell_angle_alpha                 89.66723012547519 
_cell_angle_beta                  90.3044995615658 
_cell_angle_gamma                 81.79519945130268 
loop_ 
_atom_site_label 
_atom_site_type_symbol 
_atom_site_fract_x 
_atom_site_fract_y 
_atom_site_fract_z 
_atom_site_charge 
C1          C  0.13731159  0.99243237  0.07221202     0.42300
N2          N  0.07082586  0.99016335  0.06374194     0.01200
C3          C  0.97550548  0.91164295  0.90699374    -0.06700
H4          H  0.06748321  0.03052952  0.87547000     0.06600
C5          C  0.96706025  0.13193911  0.95734512    -0.07100
Co6        Co  0.05455693  0.94054264  0.99455084     0.74200
N7          N  0.05504291  0.99661345  0.92638831    -0.26300
Co8        Co  0.98933095  0.00336404  0.93101394     0.74100
C9          C  0.98800329  0.13526077  0.92093770     0.42400
N10         N  0.97614833  0.08626506  0.04672989     0.00800
N11         N  0.98536629  0.06958121  0.93347477     0.00900
N12         N  0.01953790  0.87225257  0.94837465    -0.47100
H13         H  0.15463235  0.95326706  0.01817390     0.06600
N14         N  0.07984035  0.97277784  0.95058575     0.01200
N15         N  0.92386639  0.00973384  0.93719823     0.00900
C16         C  0.85765207  0.00803284  0.92739792     0.42500
N17         N  0.00060650  0.06206397  0.07091507    -0.25700
C18         C  0.02941158  0.86768206  0.04536495    -0.06600
N19         N  0.09840467  0.00428300  0.08710178    -0.46800
N20         N  0.89679186  0.99561537  0.91346652    -0.47000
C21         C  0.00903785  0.86498208  0.08225963     0.42300
N22         N  0.01849993  0.91336732  0.95451675     0.01100
N23         N  0.93877018  0.00266943  0.07425090    -0.25700
N24         N  0.08935506  0.96920199  0.03469179    -0.26200
N25         N  0.91436833  0.02680926  0.04994808     0.00800
H26         H  0.92482122  0.96574391  0.12307011     0.06700
H27         H  0.83928526  0.04774101  0.98103767     0.06700
N28         N  0.99344840  0.93717147  0.93043524    -0.26300
N29         N  0.96678136  0.09033887  0.96260180    -0.25900
N30         N  0.00916204  0.93047549  0.06748308     0.01200
C31         C  0.12260524  0.99346776  0.91005589     0.42600
C32         C  0.01924175  0.08689220  0.09433635    -0.07100
N33         N  0.90497783  0.03109614  0.96585433    -0.25900
H34         H  0.95294080  0.15667155  0.97614918     0.06700
N35         N  0.12041849  0.96975457  0.94168851    -0.47100
H36         H  0.04062729  0.07578463  0.11735860     0.06700
C37         C  0.87049877  0.00341084  0.08788157     0.42400
C38         C  0.13132081  0.96901795  0.03748489    -0.06600
Co39       Co  0.00488609  0.99627664  0.06999690     0.73800
N40         N  0.97684173  0.12727810  0.05239157    -0.46800
C41         C  0.99290292  0.86860027  0.91905454     0.42700
N42         N  0.99761057  0.90518594  0.09428348    -0.46800
Co43       Co  0.93993110  0.05932917  0.00640256     0.73900
C44         C  0.86296169  0.03174893  0.96218830    -0.07100
C45         C  0.07918870  0.01130955  0.89973644    -0.06700
N46         N  0.02816494  0.90935733  0.03875549    -0.26200
N47         N  0.99825942  0.09533730  0.90758954    -0.47000
H48         H  0.95453489  0.92196336  0.88346838     0.06700
C49         C  0.91385139  0.98635704  0.09945617    -0.07100
Cl50       Cl  0.99717308  0.99987547  0.00048641    -0.50100
C51         C  0.00352636  0.13016213  0.08191422     0.42400
H52         H  0.04458471  0.84264806  0.02738612     0.06600
N53         N  0.87353693  0.02822637  0.05714047    -0.46800
C54         C  0.03489393  0.52750337  0.26505040     0.80000
N55         N  0.03052045  0.52816420  0.30357402    -0.78300
C56         C  0.02932296  0.49139688  0.32333413     0.82500
N57         N  0.03228408  0.45423131  0.30416134    -0.78200
C58         C  0.03661696  0.45303412  0.26590158     0.82600
N59         N  0.03797720  0.48978769  0.24656842    -0.79900
C60         C  0.01128789  0.53711321  0.73604917     0.80000
N61         N  0.00661679  0.49983551  0.75343808    -0.78300
C62         C  0.00691659  0.46373305  0.73285169     0.82500
N63         N  0.01136567  0.46547209  0.69448365    -0.78200
C64         C  0.01568100  0.50261053  0.67666858     0.82600
N65         N  0.01591436  0.53820749  0.69774239    -0.79900
C66         C  0.46605626  0.98035673  0.26574675     0.80000
N67         N  0.50356368  0.97812508  0.24693509    -0.78300
C68         C  0.54084226  0.97501256  0.26646130     0.82500
N69         N  0.54018313  0.97452075  0.30495433    -0.78200
C70         C  0.50326403  0.97688105  0.32427375     0.82600
N71         N  0.46620076  0.97968971  0.30447475    -0.79900
C72         C  0.46311051  0.97680061  0.73778205     0.80000
N73         N  0.50146003  0.97628011  0.75475228    -0.78300
C74         C  0.53720451  0.97572727  0.73390276     0.82500
N75         N  0.53431596  0.97568809  0.69532671    -0.78200
C76         C  0.49607130  0.97608554  0.67777559     0.82600
N77         N  0.46066450  0.97668962  0.69926097    -0.79900
C78         C  0.50401029  0.97780122  0.36646849    -0.03400
C79         C  0.54268088  0.97783513  0.38590194    -0.06000
C80         C  0.54394445  0.97996828  0.42544065    -0.21100
C81         C  0.50678222  0.98165323  0.44680076     0.24700
C82         C  0.46791131  0.98166188  0.42752740    -0.18600
C83         C  0.46660139  0.97969965  0.38776054    -0.08600
C84         C  0.51037289  0.98436887  0.48885328    -0.18900
C85         C  0.48127267  0.97366618  0.51333445    -0.23700
C86         C  0.48625100  0.97499549  0.55538381     0.26700
C87         C  0.44993220  0.97720120  0.57800894    -0.20400
C88         C  0.45308486  0.97774108  0.61762120    -0.10100
C89         C  0.49280968  0.97577717  0.63566517    -0.10600
C90         C  0.52927399  0.97311851  0.61304092    -0.03600
C91         C  0.52610760  0.97255384  0.57339925    -0.18700
H92         H  0.57218893  0.97657633  0.37059321     0.10400
H93         H  0.57427200  0.98012695  0.43944485     0.10500
H94         H  0.43834744  0.98406706  0.44278775     0.10100
H95         H  0.43625760  0.98004843  0.37372022     0.11200
H96         H  0.53897034  0.99481590  0.49985502     0.11300
H97         H  0.45243326  0.96357926  0.50250297     0.13200
H98         H  0.41889245  0.97869756  0.56496112     0.09800
H99         H  0.42428583  0.97965612  0.63406611     0.11900
H100        H  0.56041489  0.97107328  0.62593389     0.08500
H101        H  0.55509555  0.96925109  0.55722251     0.11200
C102        C  0.02525071  0.49096344  0.36538281    -0.03400
C103        C  0.02158074  0.45271655  0.38451157    -0.06000
C104        C  0.01868032  0.45137750  0.42402456    -0.22200
C105        C  0.01967089  0.48803634  0.44568588     0.24700
C106        C  0.02263186  0.52660837  0.42663899    -0.18600
C107        C  0.02545069  0.52798025  0.38691499    -0.08600
C108        C  0.01654009  0.48438653  0.48777780    -0.18900
C109        C  0.02808054  0.51296403  0.51241441    -0.23700
C110        C  0.02490451  0.50888490  0.55444145     0.26700
C111        C  0.02296738  0.54567989  0.57647391    -0.20400
C112        C  0.02014490  0.54361748  0.61602735    -0.10100
C113        C  0.01947974  0.50452003  0.63465735    -0.10600
C114        C  0.02210307  0.46748438  0.61267212    -0.03600
C115        C  0.02493133  0.46956653  0.57304026    -0.18700
H116        H  0.02103116  0.42353045  0.36900162     0.10400
H117        H  0.01603690  0.42132736  0.43777997     0.10500
H118        H  0.02218901  0.55593249  0.44200520     0.10100
H119        H  0.02789478  0.55802289  0.37311782     0.11200
H120        H  0.00461642  0.45644850  0.49869102     0.11300
H121        H  0.03974577  0.54110421  0.50172442     0.13200
H122        H  0.02324934  0.57631436  0.56297519     0.09800
H123        H  0.01825694  0.57280702  0.63195281     0.11900
H124        H  0.02214804  0.43676259  0.62606757     0.08500
H125        H  0.02784921  0.44023077  0.55732632     0.11200
C126        C  0.99394677  0.17487440  0.90069931    -0.03400
C127        C  0.98920668  0.21351310  0.92034145    -0.06000
C128        C  0.99307662  0.25140893  0.90144281    -0.21100
C129        C  0.00118716  0.25182924  0.86235566     0.24700
C130        C  0.00671168  0.21304215  0.84263550    -0.18600
C131        C  0.00326989  0.17487611  0.86173688    -0.08600
C132        C  0.00467856  0.29332222  0.84387484    -0.18900
C133        C  0.99669575  0.30173578  0.80675961    -0.23700
C134        C  0.99883357  0.34392931  0.78878437     0.26700
C135        C  0.00286981  0.34623055  0.74917845    -0.20400
C136        C  0.00521407  0.38503021  0.73102061    -0.10100
C137        C  0.00328080  0.42269132  0.75205342    -0.10600
C138        C  0.99833138  0.42058421  0.79164921    -0.03600
C139        C  0.99594772  0.38177644  0.80980285    -0.18700
H140        H  0.98260093  0.21461491  0.95045750     0.10400
H141        H  0.98916130  0.28069289  0.91740438     0.10500
H142        H  0.01425326  0.21190596  0.81270828     0.10100
H143        H  0.00735769  0.14548527  0.84596218     0.11200
H144        H  0.01298742  0.31810317  0.86223933     0.11300
H145        H  0.98845536  0.27677475  0.78850404     0.13200
H146        H  0.00467672  0.31776772  0.73219647     0.09800
H147        H  0.00880838  0.38538021  0.70046504     0.11900
H148        H  0.99623113  0.44897076  0.80874112     0.08500
H149        H  0.99120202  0.38196388  0.84016753     0.11200
C150        C  0.01176186  0.57619400  0.75849058    -0.03400
C151        C  0.03570658  0.60744201  0.74623713    -0.06000
C152        C  0.03662515  0.64428578  0.76745168    -0.21100
C153        C  0.01253855  0.65128531  0.80060599     0.24700
C154        C  0.98834402  0.62020943  0.81285931    -0.18600
C155        C  0.98835975  0.58273788  0.79218800    -0.08600
C156        C  0.01476691  0.69036156  0.82272194    -0.18900
C157        C  0.98080807  0.71227425  0.83966750    -0.23700
C158        C  0.98365528  0.75194526  0.86081017     0.26700
C159        C  0.95051825  0.78600352  0.85818602    -0.20400
C160        C  0.95337289  0.82413603  0.87706286    -0.10100
C161        C  0.98885832  0.82826418  0.89979181    -0.10600
C162        C  0.02125856  0.79362566  0.90349939    -0.03600
C163        C  0.01889474  0.75597253  0.88392983    -0.18700
H164        H  0.05431778  0.60305209  0.72054091     0.10400
H165        H  0.05580729  0.66764262  0.75772486     0.10500
H166        H  0.97015269  0.62449219  0.83879139     0.10100
H167        H  0.96967080  0.55913049  0.80226209     0.11200
H168        H  0.04470644  0.70293179  0.82302209     0.11300
H169        H  0.94982652  0.70238135  0.83595038     0.13200
H170        H  0.92287754  0.78340053  0.84082287     0.09800
H171        H  0.92778490  0.85026934  0.87405719     0.11900
H172        H  0.04890061  0.79593279  0.92095002     0.08500
H173        H  0.04446133  0.72986326  0.88716298     0.11200
C174        C  0.01229824  0.17036340  0.09900687    -0.03400
C175        C  0.99550585  0.20947608  0.08253732    -0.06000
C176        C  0.00267801  0.24756296  0.09927803    -0.21100
C177        C  0.02637840  0.24737992  0.13300896     0.24700
C178        C  0.04420881  0.20814726  0.14890522    -0.18600
C179        C  0.03710078  0.17008799  0.13212445    -0.08600
C180        C  0.03157509  0.28862471  0.15074309    -0.18900
C181        C  0.03892465  0.29277322  0.18816139    -0.23700
C182        C  0.04003078  0.33422090  0.20708633     0.26700
C183        C  0.03254496  0.33679985  0.24627413    -0.20400
C184        C  0.03188681  0.37520117  0.26532258    -0.10100
C185        C  0.03891252  0.41207511  0.24563115    -0.10600
C186        C  0.04755620  0.40934987  0.20652269    -0.03600
C187        C  0.04830177  0.37078959  0.18743769    -0.18700
H188        H  0.97656062  0.21066659  0.05682508     0.10400
H189        H  0.98896148  0.27729658  0.08621836     0.10500
H190        H  0.06393825  0.20655033  0.17410091     0.10100
H191        H  0.05088823  0.14052572  0.14533144     0.11200
H192        H  0.02569464  0.31672013  0.13284232     0.11300
H193        H  0.04089874  0.26505588  0.20651498     0.13200
H194        H  0.02644619  0.30908813  0.26217548     0.09800
H195        H  0.02528911  0.37601131  0.29546741     0.11900
H196        H  0.05371471  0.43700968  0.19060611     0.08500
H197        H  0.05564611  0.36983692  0.15748287     0.11200
C198        C  0.00799976  0.82672583  0.10613108    -0.03400
C199        C  0.99314486  0.83061654  0.14361312    -0.06000
C200        C  0.99459633  0.79481368  0.16707409    -0.21100
C201        C  0.01106875  0.75437864  0.15370464     0.24700
C202        C  0.02468155  0.75037453  0.11570935    -0.18600
C203        C  0.02326186  0.78618212  0.09228496    -0.08600
C204        C  0.01218270  0.71721961  0.17981834    -0.18900
C205        C  0.03737641  0.68000158  0.17452363    -0.23700
C206        C  0.03673393  0.64194789  0.19906726     0.26700
C207        C  0.04897174  0.60188195  0.18309464    -0.20400
C208        C  0.04835560  0.56499556  0.20456802    -0.10100
C209        C  0.03612467  0.56719221  0.24291518    -0.10600
C210        C  0.02479798  0.60738325  0.25930810    -0.03600
C211        C  0.02499535  0.64444212  0.23759233    -0.18700
H212        H  0.98093977  0.86143432  0.15502735     0.10400
H213        H  0.98331494  0.79880815  0.19598135     0.10500
H214        H  0.03593957  0.71974855  0.10360091     0.10100
H215        H  0.03432035  0.78197703  0.06336928     0.11200
H216        H  0.99130178  0.72087814  0.20418611     0.11300
H217        H  0.05839617  0.67622155  0.15028967     0.13200
H218        H  0.05848165  0.59905396  0.15360668     0.09800
H219        H  0.05761072  0.53467611  0.19100276     0.11900
H220        H  0.01544418  0.61021681  0.28880590     0.08500
H221        H  0.01651645  0.67482160  0.25119977     0.11200
C222        C  0.57856750  0.97562861  0.75348216    -0.03400
C223        C  0.61512267  0.98175570  0.73326961    -0.06000
C224        C  0.65353407  0.98308362  0.75241800    -0.21100
C225        C  0.65628291  0.97841022  0.79211828     0.24700
C226        C  0.61995661  0.97095847  0.81214409    -0.18600
C227        C  0.58161443  0.96988344  0.79309178    -0.08600
C228        C  0.69759225  0.98074331  0.81144543    -0.18900
C229        C  0.70123153  0.98900929  0.84880415    -0.23700
C230        C  0.74207054  0.99251008  0.86846953     0.26700
C231        C  0.74084736  0.01230099  0.90409880    -0.20400
C232        C  0.77825403  0.01694236  0.92355009    -0.10100
C233        C  0.81783021  0.00165701  0.90785350    -0.10600
C234        C  0.81917509  0.98080537  0.87271932    -0.03600
C235        C  0.78176709  0.97614160  0.85324597    -0.18700
H236        H  0.61397384  0.98608485  0.70273353     0.10400
H237        H  0.68110259  0.98832897  0.73618297     0.10500
H238        H  0.62084213  0.96540490  0.84246507     0.10100
H239        H  0.55430861  0.96437256  0.80955853     0.11200
H240        H  0.72548665  0.97761947  0.79364816     0.11300
H241        H  0.67283137  0.99573058  0.86578425     0.13200
H242        H  0.71076973  0.02472112  0.91678618     0.09800
H243        H  0.77605157  0.03280516  0.95070885     0.11900
H244        H  0.84923788  0.96822985  0.86011472     0.08500
H245        H  0.78432852  0.95935792  0.82657934     0.11200
C246        C  0.16171591  0.99486475  0.88807864    -0.03400
C247        C  0.16124458  0.01958619  0.85490988    -0.06000
C248        C  0.19800581  0.01917459  0.83339560    -0.21100
C249        C  0.23602300  0.99423545  0.84459302     0.24700
C250        C  0.23644171  0.96951183  0.87793901    -0.18600
C251        C  0.19972508  0.97009208  0.89952010    -0.08600
C252        C  0.27377733  0.99373481  0.81988525    -0.18900
C253        C  0.31373865  0.97975394  0.83133695    -0.23700
C254        C  0.35122366  0.97934199  0.80638906     0.26700
C255        C  0.39120868  0.97861768  0.82335192    -0.20400
C256        C  0.42741280  0.97790999  0.80110550    -0.10100
C257        C  0.42452820  0.97755086  0.76123462    -0.10600
C258        C  0.38454314  0.97768931  0.74418930    -0.03600
C259        C  0.34828982  0.97839216  0.76648819    -0.18700
H260        H  0.13248496  0.03903356  0.84533691     0.10400
H261        H  0.19667427  0.03832777  0.80776210     0.10500
H262        H  0.26453503  0.94881811  0.88714644     0.10100
H263        H  0.20093032  0.95044011  0.92482932     0.11200
H264        H  0.26828898  0.00696233  0.79152944     0.11300
H265        H  0.31989575  0.97004342  0.86063940     0.13200
H266        H  0.39443860  0.97889418  0.85399637     0.09800
H267        H  0.45768195  0.97762832  0.81526685     0.11900
H268        H  0.38121305  0.97699372  0.71358808     0.08500
H269        H  0.31830331  0.97740739  0.75227624     0.11200
C270        C  0.58203788  0.97310689  0.24653303    -0.03400
C271        C  0.61997882  0.97050577  0.26759046    -0.06000
C272        C  0.65886380  0.96963881  0.24936567    -0.21100
C273        C  0.66103581  0.97155795  0.20964404     0.24700
C274        C  0.62320492  0.97325235  0.18838776    -0.18600
C275        C  0.58415037  0.97417987  0.20668321    -0.08600
C276        C  0.70339977  0.97141065  0.19190773    -0.18900
C277        C  0.70902064  0.98516461  0.15628660    -0.23700
C278        C  0.75127770  0.98820949  0.13949915     0.26700
C279        C  0.75308917  0.01523672  0.10813170    -0.20400
C280        C  0.79181078  0.01987944  0.09150239    -0.10100
C281        C  0.82981930  0.99743309  0.10573399    -0.10600
C282        C  0.82821215  0.96973729  0.13671461    -0.03600
C283        C  0.78931023  0.96498777  0.15338935    -0.18700
H284        H  0.61977032  0.96938879  0.29833039     0.10400
H285        H  0.68739898  0.96797367  0.26648928     0.10500
H286        H  0.62342947  0.97339838  0.15770346     0.10100
H287        H  0.55563746  0.97575865  0.18957477     0.11200
H288        H  0.73085943  0.96224776  0.20999294     0.11300
H289        H  0.68155921  0.99759911  0.13926376     0.13200
H290        H  0.72439049  0.03326590  0.09662817     0.09800
H291        H  0.79194394  0.04133429  0.06753407     0.11900
H292        H  0.85692265  0.95159854  0.14800481     0.08500
H293        H  0.78930180  0.94278156  0.17672503     0.11200
C294        C  0.42530486  0.98437230  0.24430857    -0.03400
C295        C  0.38755376  0.97854990  0.26273254    -0.06000
C296        C  0.34911968  0.98278083  0.24275155    -0.21100
C297        C  0.34715054  0.99309859  0.20384896     0.24700
C298        C  0.38497737  0.99922972  0.18538509    -0.18600
C299        C  0.42354002  0.99465928  0.20536202    -0.08600
C300        C  0.30496043  0.99710842  0.18430510    -0.18900
C301        C  0.29871924  0.00164653  0.14643423    -0.23700
C302        C  0.25650457  0.00237329  0.12765872     0.26700
C303        C  0.25513148  0.99091860  0.08926056    -0.20400
C304        C  0.21643625  0.98855573  0.07103744    -0.10100
C305        C  0.17804762  0.99810357  0.09068234    -0.10600
C306        C  0.17914295  0.01168852  0.12851717    -0.03600
C307        C  0.21791132  0.01382483  0.14685931    -0.18700
H308        H  0.38764840  0.97050987  0.29266345     0.10400
H309        H  0.32069534  0.97788198  0.25787284     0.10500
H310        H  0.38531179  0.00790498  0.15571409     0.10100
H311        H  0.45194200  0.99974989  0.19032021     0.11200
H312        H  0.27793809  0.99412624  0.20219548     0.11300
H313        H  0.32561973  0.00194441  0.12783204     0.13200
H314        H  0.28421613  0.98265464  0.07352078     0.09800
H315        H  0.21673192  0.97875223  0.04164977     0.11900
H316        H  0.15003500  0.01984845  0.14422308     0.08500
H317        H  0.21734972  0.02448023  0.17597243     0.11200
loop_ 
_geom_bond_atom_site_label_1 
_geom_bond_atom_site_label_2 
_geom_bond_distance 
_geom_bond_site_symmetry_2 
_ccdc_geom_bond_type 
C1           N19   1.353   1_565  A
C1           C38   1.461       .  S
C1          C305   1.484       .  S
N2           N19   1.327   1_565  A
N2           N24   1.320       .  A
N2          Co39   2.097       .  S
C3           N28   1.343       .  A
C3           C41   1.463       .  S
C3           H48   1.081       .  S
H4           C45   1.081       .  S
C5           N29   1.337       .  A
C5            C9   1.459       .  S
C5           H34   1.081       .  S
Co6          N24   2.085   1_556  S
Co6          N14   2.081       .  S
Co6          N46   2.086   1_556  S
Co6          N22   2.083       .  S
Co6         Cl50   2.446   1_456  S
N7           C45   1.341   1_565  A
N7           N14   1.319       .  A
N7           Co8   2.083   1_465  S
Co8          N11   2.096       .  S
Co8          N28   2.093   1_545  S
Co8          N15   2.081       .  S
Co8         Cl50   2.458   1_546  S
C9           N47   1.354       .  A
C9          C126   1.481       .  S
N10          N17   1.319   1_655  A
N10          N40   1.325       .  A
N10         Co43   2.089       .  S
N11          N29   1.320       .  A
N11          N47   1.328       .  A
N12          C41   1.349   1_455  A
N12          N22   1.324       .  A
H13          C38   1.081       .  S
N14          N35   1.323       .  A
N15          N33   1.319       .  A
N15          N20   1.324   1_545  A
C16          N20   1.350   1_545  A
C16          C44   1.464       .  S
C16         C233   1.481       .  S
N17          C32   1.339       .  A
N17         Co39   2.080   1_545  S
C18          N46   1.340       .  A
C18          C21   1.463       .  S
C18          H52   1.081       .  S
C21          N42   1.351   1_455  A
C21         C198   1.480       .  S
N22          N28   1.320   1_455  A
N23          C49   1.345   1_545  A
N23          N25   1.320       .  A
N23         Co39   2.095   1_645  S
N24          C38   1.340       .  A
N25          N53   1.322       .  A
N25         Co43   2.079       .  S
H26          C49   1.081       .  S
H27          C44   1.081       .  S
N29         Co43   2.079   1_556  S
N30          N42   1.324   1_455  A
N30          N46   1.319       .  A
N30         Co39   2.082       .  S
C31          N35   1.350       .  A
C31          C45   1.462   1_565  S
C31         C246   1.477       .  S
C32          C51   1.461       .  S
C32          H36   1.081       .  S
N33          C44   1.342       .  A
N33         Co43   2.091   1_556  S
C37          N53   1.348       .  A
C37          C49   1.466   1_545  S
C37         C281   1.480   1_545  S
Co39        Cl50   2.459   1_455  S
N40          C51   1.352   1_655  A
C41         C161   1.477       .  S
Co43        Cl50   2.445   1_545  S
C51         C174   1.479       .  S
C54          N55   1.364       .  A
C54          N59   1.360       .  A
C54         C209   1.486       .  S
N55          C56   1.363       .  A
C56          N57   1.357       .  A
C56         C102   1.487       .  S
N57          C58   1.355       .  A
C58          N59   1.356       .  A
C58         C185   1.483       .  S
C60          N61   1.359       .  A
C60          N65   1.358       .  A
C60         C150   1.479       .  S
N61          C62   1.361       .  A
C62          N63   1.361       .  A
C62         C137   1.487       .  S
N63          C64   1.360       .  A
C64          N65   1.359       .  A
C64         C113   1.486       .  S
C66          N67   1.363       .  A
C66          N71   1.364       .  A
C66         C294   1.488       .  S
N67          C68   1.361       .  A
C68          N69   1.356       .  A
C68         C270   1.486       .  S
N69          C70   1.356       .  A
C70          N71   1.360       .  A
C70          C78   1.486       .  S
C72          N73   1.356       .  A
C72          N77   1.358       .  A
C72         C257   1.483       .  S
N73          C74   1.357       .  A
C74          N75   1.361       .  A
C74         C222   1.484       .  S
N75          C76   1.363       .  A
C76          N77   1.360       .  A
C76          C89   1.486       .  S
C78          C79   1.407       .  A
C78          C83   1.406       .  A
C79          H92   1.083       .  S
C79          C80   1.395       .  A
C80          H93   1.084       .  S
C80          C81   1.402       .  A
C81          C82   1.410       .  A
C81          C84   1.488       .  S
C82          H94   1.081       .  S
C82          C83   1.403       .  A
C83          H95   1.083       .  S
C84          C85   1.347       .  D
C84          H96   1.085       .  S
C85          C86   1.490       .  S
C85          H97   1.084       .  S
C86          C87   1.403       .  A
C86          C91   1.409       .  A
C87          H98   1.084       .  S
C87          C88   1.398       .  A
C88          H99   1.083       .  S
C88          C89   1.407       .  A
C89          C90   1.406       .  A
C90         H100   1.083       .  S
C90          C91   1.399       .  A
C91         H101   1.081       .  S
C102        C103   1.408       .  A
C102        C107   1.406       .  A
C103        H116   1.083       .  S
C103        C104   1.396       .  A
C104        H117   1.084       .  S
C104        C105   1.402       .  A
C105        C106   1.411       .  A
C105        C108   1.491       .  S
C106        H118   1.080       .  S
C106        C107   1.403       .  A
C107        H119   1.083       .  S
C108        C109   1.348       .  D
C108        H120   1.085       .  S
C109        C110   1.490       .  S
C109        H121   1.084       .  S
C110        C111   1.403       .  A
C110        C115   1.409       .  A
C111        H122   1.084       .  S
C111        C112   1.398       .  A
C112        H123   1.083       .  S
C112        C113   1.406       .  A
C113        C114   1.407       .  A
C114        H124   1.083       .  S
C114        C115   1.401       .  A
C115        H125   1.081       .  S
C126        C127   1.404       .  A
C126        C131   1.405   1_655  A
C127        H140   1.082       .  S
C127        C128   1.395       .  A
C128        H141   1.084       .  S
C128        C129   1.402   1_655  A
C129        C130   1.410       .  A
C129        C132   1.488       .  S
C130        H142   1.082       .  S
C130        C131   1.403       .  A
C131        H143   1.083       .  S
C132        C133   1.348   1_455  D
C132        H144   1.084       .  S
C133        C134   1.492       .  S
C133        H145   1.085       .  S
C134        C135   1.404   1_655  A
C134        C139   1.410       .  A
C135        H146   1.083       .  S
C135        C136   1.399       .  A
C136        H147   1.083       .  S
C136        C137   1.407       .  A
C137        C138   1.406   1_455  A
C138        H148   1.083       .  S
C138        C139   1.399       .  A
C139        H149   1.080       .  S
C150        C151   1.405       .  A
C150        C155   1.406   1_455  A
C151        H164   1.083       .  S
C151        C152   1.398       .  A
C152        H165   1.083       .  S
C152        C153   1.402       .  A
C153        C154   1.406   1_455  A
C153        C156   1.481       .  S
C154        H166   1.083       .  S
C154        C155   1.401       .  A
C155        H167   1.083       .  S
C156        C157   1.346   1_455  D
C156        H168   1.086       .  S
C157        C158   1.483       .  S
C157        H169   1.086       .  S
C158        C159   1.404       .  A
C158        C163   1.405   1_655  A
C159        H170   1.083       .  S
C159        C160   1.401       .  A
C160        H171   1.083       .  S
C160        C161   1.404       .  A
C161        C162   1.404   1_655  A
C162        H172   1.083       .  S
C162        C163   1.397       .  A
C163        H173   1.083       .  S
C174        C175   1.404   1_455  A
C174        C179   1.405       .  A
C175        H188   1.083       .  S
C175        C176   1.398   1_655  A
C176        H189   1.083   1_455  S
C176        C177   1.404       .  A
C177        C178   1.408       .  A
C177        C180   1.487       .  S
C178        H190   1.082       .  S
C178        C179   1.398       .  A
C179        H191   1.082       .  S
C180        C181   1.347       .  D
C180        H192   1.085       .  S
C181        C182   1.486       .  S
C181        H193   1.085       .  S
C182        C183   1.402       .  A
C182        C187   1.408       .  A
C183        H194   1.083       .  S
C183        C184   1.395       .  A
C184        H195   1.083       .  S
C184        C185   1.406       .  A
C185        C186   1.406       .  A
C186        H196   1.083       .  S
C186        C187   1.400       .  A
C187        H197   1.081       .  S
C198        C199   1.405   1_455  A
C198        C203   1.404       .  A
C199        H212   1.083       .  S
C199        C200   1.399       .  A
C200        H213   1.083       .  S
C200        C201   1.404   1_655  A
C201        C202   1.409       .  A
C201        C204   1.490       .  S
C202        H214   1.081       .  S
C202        C203   1.398       .  A
C203        H215   1.082       .  S
C204        C205   1.348       .  D
C204        H216   1.085   1_455  S
C205        C206   1.486       .  S
C205        H217   1.084       .  S
C206        C207   1.401       .  A
C206        C211   1.409       .  A
C207        H218   1.084       .  S
C207        C208   1.395       .  A
C208        H219   1.083       .  S
C208        C209   1.407       .  A
C209        C210   1.407       .  A
C210        H220   1.083       .  S
C210        C211   1.403       .  A
C211        H221   1.082       .  S
C222        C223   1.405       .  A
C222        C227   1.407       .  A
C223        H236   1.083       .  S
C223        C224   1.401       .  A
C224        H237   1.083       .  S
C224        C225   1.406       .  A
C225        C226   1.407       .  A
C225        C228   1.491       .  S
C226        H238   1.081       .  S
C226        C227   1.396       .  A
C227        H239   1.083       .  S
C228        C229   1.351       .  D
C228        H240   1.084       .  S
C229        C230   1.490       .  S
C229        H241   1.084       .  S
C230        C231   1.405   1_565  A
C230        C235   1.408       .  A
C231        H242   1.083       .  S
C231        C232   1.399       .  A
C232        H243   1.082       .  S
C232        C233   1.403       .  A
C233        C234   1.405   1_545  A
C234        H244   1.083       .  S
C234        C235   1.399       .  A
C235        H245   1.081       .  S
C246        C247   1.403   1_565  A
C246        C251   1.404       .  A
C247        H260   1.082       .  S
C247        C248   1.397       .  A
C248        H261   1.083       .  S
C248        C249   1.404   1_545  A
C249        C250   1.409       .  A
C249        C252   1.487       .  S
C250        H262   1.080       .  S
C250        C251   1.397       .  A
C251        H263   1.083       .  S
C252        C253   1.347       .  D
C252        H264   1.085   1_565  S
C253        C254   1.486       .  S
C253        H265   1.084       .  S
C254        C255   1.402       .  A
C254        C259   1.408       .  A
C255        H266   1.084       .  S
C255        C256   1.396       .  A
C256        H267   1.083       .  S
C256        C257   1.407       .  A
C257        C258   1.406       .  A
C258        H268   1.083       .  S
C258        C259   1.398       .  A
C259        H269   1.081       .  S
C270        C271   1.408       .  A
C270        C275   1.405       .  A
C271        H284   1.083       .  S
C271        C272   1.396       .  A
C272        H285   1.084       .  S
C272        C273   1.402       .  A
C273        C274   1.410       .  A
C273        C276   1.491       .  S
C274        H286   1.080       .  S
C274        C275   1.402       .  A
C275        H287   1.083       .  S
C276        C277   1.347       .  D
C276        H288   1.084       .  S
C277        C278   1.490       .  S
C277        H289   1.084       .  S
C278        C279   1.403   1_565  A
C278        C283   1.411       .  A
C279        H290   1.084       .  S
C279        C280   1.396       .  A
C280        H291   1.083       .  S
C280        C281   1.404   1_545  A
C281        C282   1.404       .  A
C282        H292   1.083       .  S
C282        C283   1.402       .  A
C283        H293   1.081       .  S
C294        C295   1.405       .  A
C294        C299   1.407       .  A
C295        H308   1.083       .  S
C295        C296   1.399       .  A
C296        H309   1.083       .  S
C296        C297   1.406       .  A
C297        C298   1.410       .  A
C297        C300   1.497       .  S
C298        H310   1.080   1_565  S
C298        C299   1.402       .  A
C299        H311   1.083       .  S
C300        C301   1.351   1_565  D
C300        H312   1.085       .  S
C301        C302   1.494       .  S
C301        H313   1.083       .  S
C302        C303   1.404   1_545  A
C302        C307   1.410       .  A
C303        H314   1.083       .  S
C303        C304   1.399       .  A
C304        H315   1.082       .  S
C304        C305   1.405       .  A
C305        C306   1.405   1_565  A
C306        H316   1.083       .  S
C306        C307   1.402       .  A
C307        H317   1.081       .  S
