geometry optimzed in LAMMPS
_audit_creation_date              2020-12-01 
_audit_creation_method            'lammps2cif' 
_symmetry_space_group_name_H-M    'P1' 
_symmetry_Int_Tables_number       1 
_symmetry_cell_setting            triclinic 
loop_ 
_symmetry_equiv_pos_as_xyz 
  x,y,z 
_cell_length_a                    30.01525111 
_cell_length_b                    30.012041923930823 
_cell_length_c                    30.00061740286232 
_cell_angle_alpha                 90.00054578239157 
_cell_angle_beta                  89.99369757484678 
_cell_angle_gamma                 89.99300082590918 
loop_ 
_atom_site_label 
_atom_site_type_symbol 
_atom_site_fract_x 
_atom_site_fract_y 
_atom_site_fract_z 
_atom_site_charge 
C1          C  0.12365313  0.50021552  0.12410184    -0.00200
C2          C  0.07136725  0.50034771  0.12410746    -0.00200
C3          C  0.07136818  0.50021421  0.07179520    -0.00200
C4          C  0.12365382  0.50034492  0.07178949    -0.00200
N5          N  0.23134612  0.83515522  0.36055671    -0.25000
N6          N  0.26257332  0.86626473  0.36061032    -0.32800
C7          C  0.25532235  0.89421457  0.39490889     0.03400
C8          C  0.21783469  0.87985571  0.41727050     0.09400
C9          C  0.20336727  0.84245802  0.39482284    -0.03700
H10         H  0.27573438  0.92286476  0.40279323     0.10100
H11         H  0.17462685  0.82214287  0.40262808     0.11300
Cu12       Cu  0.31330032  0.86963061  0.31387066     0.44200
Cu13       Cu  0.22789328  0.78451356  0.31371810     0.42000
Cu14       Cu  0.31329016  0.78443368  0.22846392     0.43900
N15         N  0.36010361  0.86620481  0.26320183    -0.32300
N16         N  0.36010593  0.83506990  0.23197986    -0.26600
C17         C  0.39440106  0.84235222  0.20403953    -0.02700
C18         C  0.41680848  0.87976173  0.21852738     0.09500
C19         C  0.39439281  0.89414972  0.25598559     0.03300
H20         H  0.40224803  0.82202049  0.17530584     0.11000
H21         H  0.40222967  0.92282121  0.27639669     0.10000
N22         N  0.26255067  0.73772014  0.23184694    -0.33800
N23         N  0.23134519  0.73775296  0.26299960    -0.26000
C24         C  0.20337618  0.70349763  0.25570845    -0.01200
C25         C  0.21782266  0.68107494  0.21827532     0.07400
C26         C  0.25529055  0.70344192  0.20388070     0.05500
H27         H  0.17466126  0.69567568  0.27606396     0.10600
H28         H  0.27568977  0.69556722  0.17520248     0.09400
C29         C  0.59762938  0.97411560  0.12447242    -0.00200
C30         C  0.59750324  0.02640676  0.12446901    -0.00200
C31         C  0.59749388  0.97411132  0.07216019    -0.00200
C32         C  0.59762981  0.02640306  0.07215690    -0.00200
N33         N  0.96370111  0.16545009  0.36063836    -0.25000
N34         N  0.93249732  0.13431663  0.36069585    -0.32800
C35         C  0.93978328  0.10636004  0.39498122     0.03400
C36         C  0.97726872  0.12074009  0.41732870     0.09400
C37         C  0.99169753  0.15815692  0.39488600    -0.03700
H38         H  0.91939821  0.07768961  0.40286516     0.10100
H39         H  0.02042588  0.17849082  0.40268069     0.11300
Cu40       Cu  0.88175877  0.13092927  0.31396875     0.44200
Cu41       Cu  0.96711210  0.21610902  0.31381639     0.42000
Cu42       Cu  0.88171624  0.21616201  0.22858904     0.43900
N43         N  0.83495201  0.13434517  0.26330122    -0.32300
N44         N  0.83493453  0.16549401  0.23209322    -0.26600
C45         C  0.80065187  0.15820096  0.20414785    -0.02700
C46         C  0.77826526  0.12076977  0.21861508     0.09500
C47         C  0.80068239  0.10638001  0.25606872     0.03300
H48         H  0.79280042  0.17853970  0.17542243     0.11000
H49         H  0.79286071  0.07769234  0.27646412     0.10000
N50         N  0.93243677  0.26289509  0.23195939    -0.33800
N51         N  0.96364323  0.26287203  0.26310389    -0.26000
C52         C  0.99161133  0.29712565  0.25579630    -0.01200
C53         C  0.97716336  0.31953695  0.21836050     0.07400
C54         C  0.93969502  0.29716523  0.20398177     0.05500
H55         H  0.02033199  0.30494869  0.27613716     0.10600
H56         H  0.91929973  0.30502572  0.17530167     0.09400
C57         C  0.12376091  0.97416279  0.59818973    -0.00200
C58         C  0.07147434  0.97417112  0.59806329    -0.00200
C59         C  0.12376163  0.02645499  0.59806460    -0.00200
C60         C  0.07147528  0.02646349  0.59818580    -0.00200
N61         N  0.26268840  0.26276500  0.96431180    -0.25000
N62         N  0.23157464  0.26277782  0.93307574    -0.32800
C63         C  0.20362427  0.29707082  0.94029117     0.03400
C64         C  0.21798722  0.31947060  0.97776354     0.09400
C65         C  0.25538715  0.29705172  0.99226022    -0.03700
H66         H  0.17496940  0.30492422  0.91986689     0.10100
H67         H  0.27570413  0.30488927  0.02100104     0.11300
Cu68       Cu  0.22819107  0.21599509  0.88238374     0.44200
Cu69       Cu  0.31333712  0.21595895  0.96782737     0.42000
Cu70       Cu  0.31338279  0.13064520  0.88249190     0.43900
N71         N  0.23160062  0.16528378  0.83562532    -0.32300
N72         N  0.26273934  0.13407798  0.83566172    -0.26600
C73         C  0.25546038  0.10610250  0.80139011    -0.02700
C74         C  0.21804794  0.12054978  0.77895604     0.09500
C75         C  0.20365547  0.15802189  0.80133255     0.03300
H76         H  0.27580061  0.07737674  0.79357295     0.11000
H77         H  0.17498484  0.17841521  0.79346274     0.10000
N78         N  0.36011573  0.13408595  0.93322768    -0.33800
N79         N  0.36009636  0.16525845  0.96441337    -0.26000
C80         C  0.39436004  0.15799467  0.99239002    -0.01200
C81         C  0.41677333  0.12055850  0.97796782     0.07400
C82         C  0.39439298  0.10613433  0.94050753     0.05500
H83         H  0.40219199  0.17836859  0.02109484     0.10600
H84         H  0.40225569  0.07744363  0.92012882     0.09400
N85         N  0.26076417  0.73973368  0.96620942    -0.25000
N86         N  0.22964131  0.73973620  0.93498499    -0.32800
C87         C  0.20188609  0.70525782  0.94200324     0.03400
C88         C  0.21639161  0.68272755  0.97933656     0.09400
C89         C  0.25366855  0.70525047  0.99395756    -0.03700
H90         H  0.17331559  0.69732203  0.92149491     0.10100
H91         H  0.27408558  0.69730564  0.02259908     0.12900
Cu92       Cu  0.22612595  0.78662909  0.88444173     0.44200
Cu93       Cu  0.31127740  0.78663010  0.96984178     0.42000
Cu94       Cu  0.31128262  0.87198057  0.88457869     0.43900
N95         N  0.22964778  0.83722151  0.83760517    -0.32300
N96         N  0.26077476  0.86842930  0.83765255    -0.26600
C97         C  0.25369298  0.89621301  0.80319038    -0.02700
C98         C  0.21642032  0.88163305  0.78062868     0.09500
C99         C  0.20190316  0.84428641  0.80311459     0.03300
H100        H  0.27412070  0.92484664  0.79528178     0.11000
H101        H  0.17333634  0.82379641  0.79513629     0.10000
N102        N  0.35811804  0.86839988  0.93517318    -0.33800
N103        N  0.35811629  0.83720741  0.96633581    -0.26000
C104        C  0.39257794  0.84425726  0.99411350    -0.01200
C105        C  0.41509401  0.88157613  0.97957965     0.07400
C106        C  0.39258064  0.89615499  0.94226463     0.05500
H107        H  0.40052232  0.82377060  0.02270797     0.10600
H108        H  0.40052733  0.92476526  0.92180867     0.09400
N109        N  0.93439138  0.26073012  0.96628637    -0.25000
N110        N  0.96552743  0.26073525  0.93506883    -0.32800
C111        C  0.99325808  0.29523324  0.94207985     0.03400
C112        C  0.97872170  0.31776847  0.97940145     0.09400
C113        C  0.94145303  0.29522800  0.99402358    -0.03700
H114        H  0.02182998  0.30318138  0.92157223     0.10100
H115        H  0.92101635  0.30317329  0.02265562     0.11300
Cu116      Cu  0.96908141  0.21383328  0.88453875     0.44200
Cu117      Cu  0.88390211  0.21380998  0.96991232     0.42000
Cu118      Cu  0.88398823  0.12841599  0.88469070     0.43900
N119        N  0.96559371  0.16323905  0.83770553    -0.32300
N120        N  0.93449247  0.13200585  0.83776073    -0.26600
C121        C  0.94158432  0.10423741  0.80328733    -0.02700
C122        C  0.97883653  0.11885530  0.78071070     0.09500
C123        C  0.99333184  0.15620691  0.80319793     0.03300
H124        H  0.92117228  0.07559440  0.79537651     0.11000
H125        H  0.02187468  0.17672685  0.79520472     0.10000
N126        N  0.83712196  0.13200362  0.93525881    -0.33800
N127        N  0.83708753  0.16321449  0.96640332    -0.26000
C128        C  0.80259975  0.15617582  0.99415734    -0.01200
C129        C  0.78010602  0.11884516  0.97962632     0.07400
C130        C  0.80265776  0.10424682  0.94233818     0.05500
H131        H  0.79461933  0.17668152  0.02273026     0.10600
H132        H  0.79473200  0.07562739  0.92188807     0.09400
N133        N  0.96579962  0.73986882  0.26104124    -0.25000
N134        N  0.93459088  0.73984932  0.22990242    -0.32800
C135        C  0.94161841  0.70535680  0.20214847     0.03400
C136        C  0.97894066  0.68284321  0.21667372     0.09400
C137        C  0.99354520  0.70538823  0.25395864    -0.03700
H138        H  0.92111412  0.69739003  0.17357672     0.10100
H139        H  0.02216466  0.69745058  0.27440030     0.11300
Cu140      Cu  0.88402378  0.78669797  0.22639861     0.44200
Cu141      Cu  0.96940233  0.78675335  0.31159114     0.42000
Cu142      Cu  0.88402812  0.87191678  0.31175014     0.43900
N143        N  0.83712343  0.83720997  0.23002528    -0.32300
N144        N  0.83712227  0.86835846  0.26123089    -0.26600
C145        C  0.80262425  0.89609548  0.25421695    -0.02700
C146        C  0.78008822  0.88154851  0.21690650     0.09500
C147        C  0.80262607  0.84426888  0.20229430     0.03300
H148        H  0.79467558  0.92467695  0.27471557     0.11000
H149        H  0.79467788  0.82382050  0.17367442     0.10000
N150        N  0.93463379  0.86840724  0.35856347    -0.33800
N151        N  0.96584889  0.83727994  0.35850338    -0.26000
C152        C  0.99362521  0.84435445  0.39296626    -0.01200
C153        C  0.97903274  0.88162220  0.41554283     0.07400
C154        C  0.94168670  0.89614535  0.39306511     0.05500
H155        H  0.02225385  0.82391647  0.40087348     0.10600
H156        H  0.92118169  0.92470359  0.40106407     0.09400
N157        N  0.93254491  0.86661338  0.83573801    -0.25000
N158        N  0.96366430  0.83538804  0.83568173    -0.32800
C159        C  0.99160686  0.84264099  0.80137892     0.03400
C160        C  0.97723258  0.88012732  0.77901834     0.09400
C161        C  0.93983399  0.89459229  0.80147095    -0.03700
H162        H  0.02025799  0.82222658  0.79348594     0.10100
H163        H  0.91950334  0.92332613  0.79366307     0.11300
Cu164      Cu  0.96703903  0.78464672  0.88241099     0.44200
Cu165      Cu  0.88188969  0.87005132  0.88256188     0.42000
Cu166      Cu  0.88179318  0.78461143  0.96776230     0.43900
N167        N  0.96360058  0.73782417  0.93306456    -0.32300
N168        N  0.93244435  0.73781083  0.96426476    -0.26600
C169        C  0.93970983  0.70350579  0.99219680    -0.02700
C170        C  0.97713103  0.68110080  0.97772736     0.09500
C171        C  0.99154451  0.70352859  0.94028782     0.03300
H172        H  0.91935478  0.69564738  0.02090931     0.11000
H173        H  0.02022871  0.69569237  0.91989163     0.10000
N174        N  0.83506411  0.83533668  0.96438037    -0.33800
N175        N  0.83510091  0.86656227  0.93324886    -0.26000
C176        C  0.80083009  0.89452009  0.94054118    -0.01200
C177        C  0.77839606  0.88004269  0.97795286     0.07400
C178        C  0.80076987  0.84257032  0.99233369     0.05500
H179        H  0.79300679  0.92324859  0.92020285     0.10600
H180        H  0.79289099  0.82215160  0.02099507     0.09400
N181        N  0.35793189  0.16333255  0.22985696    -0.25000
N182        N  0.35795145  0.13221335  0.26109101    -0.32800
C183        C  0.39246272  0.10448839  0.25409636     0.03400
C184        C  0.41498924  0.11901180  0.21676871     0.09400
C185        C  0.39243296  0.15626572  0.20212492    -0.03700
H186        H  0.40043005  0.07593439  0.27462384     0.10100
H187        H  0.40037441  0.17669416  0.17348761     0.11300
Cu188      Cu  0.31107037  0.12867828  0.31163524     0.44200
Cu189      Cu  0.31101298  0.21382469  0.22621027     0.42000
Cu190      Cu  0.22569975  0.21382065  0.31149684     0.43900
N191        N  0.26050174  0.13220422  0.35848816    -0.32300
N192        N  0.22928424  0.16332823  0.35843947    -0.26600
C193        C  0.20153018  0.15626725  0.39292866    -0.02700
C194        C  0.21614181  0.11901139  0.41550859     0.09500
C195        C  0.25347428  0.10448111  0.39300675     0.03300
H196        H  0.17290177  0.17670329  0.40084860     0.11000
H197        H  0.27398529  0.07592660  0.40099854     0.10000
N198        N  0.22926250  0.26066827  0.26091196    -0.33800
N199        N  0.26044326  0.26066925  0.22973806    -0.26000
C200        C  0.25339937  0.29515464  0.20198146    -0.01200
C201        C  0.21609618  0.31768205  0.21654286     0.07400
C202        C  0.20151957  0.29515317  0.25385034     0.05500
H203        H  0.27388545  0.30311314  0.17338994     0.10600
H204        H  0.17292619  0.30311009  0.27432724     0.09400
C205        C  0.05105666  0.04687525  0.63831392    -0.16200
C206        C  0.03446711  0.06341023  0.67094301     0.07900
C207        C  0.01511297  0.08267436  0.70917964     0.09700
C208        C  0.99856052  0.09916224  0.74182796    -0.17000
C209        C  0.19796205  0.10047178  0.74043579    -0.16200
C210        C  0.18108204  0.08364187  0.70812026     0.07900
C211        C  0.16134452  0.06398252  0.67026174     0.09700
C212        C  0.14446596  0.04715321  0.63792174    -0.17000
C213        C  0.14417225  0.04686837  0.55793695    -0.16200
C214        C  0.16070983  0.06344818  0.52530700     0.07900
C215        C  0.17997562  0.08278354  0.48706519     0.09700
C216        C  0.19645971  0.09931512  0.45440722    -0.17000
C217        C  0.05076454  0.95347559  0.63792199    -0.16200
C218        C  0.03389289  0.93665404  0.67027227     0.07900
C219        C  0.01417204  0.91700720  0.70814869     0.09700
C220        C  0.99730705  0.90018923  0.74048093    -0.17000
C221        C  0.99873705  0.90132511  0.45442541    -0.16200
C222        C  0.01524044  0.91785349  0.48707341     0.07900
C223        C  0.03452404  0.93718160  0.52530839     0.09700
C224        C  0.05106827  0.95375672  0.55793542    -0.17000
C225        C  0.19668667  0.90136616  0.74177191    -0.16200
C226        C  0.18012651  0.91788941  0.70914696     0.07900
C227        C  0.16076537  0.93719161  0.67093382     0.09700
C228        C  0.14417423  0.95374724  0.63831764    -0.17000
C229        C  0.05077722  0.04717361  0.55832684    -0.16200
C230        C  0.03393170  0.06404472  0.52598831     0.07900
C231        C  0.01423862  0.08376914  0.48813643     0.09700
C232        C  0.99737667  0.10064376  0.45583183    -0.17000
C233        C  0.63774471  0.04680466  0.05173527    -0.16200
C234        C  0.67036324  0.06335603  0.03516937     0.07900
C235        C  0.70858945  0.08265067  0.01585736     0.09700
C236        C  0.74123057  0.09915612  0.99933627    -0.17000
C237        C  0.45529260  0.10049751  0.99805012    -0.16200
C238        C  0.48760881  0.08365741  0.01490047     0.07900
C239        C  0.52546550  0.06396973  0.03459090     0.09700
C240        C  0.55779724  0.04711620  0.05144287    -0.17000
C241        C  0.73986275  0.90008561  0.99802984    -0.16200
C242        C  0.70753438  0.91690394  0.01488280     0.07900
C243        C  0.66966523  0.93656345  0.03458092     0.09700
C244        C  0.63732626  0.95340006  0.05144020    -0.17000
C245        C  0.55737826  0.95370305  0.05174776    -0.16200
C246        C  0.52477086  0.93713315  0.03518098     0.07900
C247        C  0.48656563  0.91780941  0.01585732     0.09700
C248        C  0.45394570  0.90128231  0.99931847    -0.17000
C249        C  0.63733481  0.04712043  0.14518101    -0.16200
C250        C  0.66964901  0.06400593  0.16203092     0.07900
C251        C  0.70747633  0.08375537  0.18171343     0.09700
C252        C  0.73976748  0.10065239  0.19855099    -0.17000
C253        C  0.45388161  0.09930302  0.19711173    -0.16200
C254        C  0.48653345  0.08275839  0.18064853     0.07900
C255        C  0.52476733  0.06341001  0.16140487     0.09700
C256        C  0.55738971  0.04682338  0.14487892    -0.17000
C257        C  0.63774375  0.95370287  0.14488208    -0.16200
C258        C  0.67035777  0.93712916  0.16143408     0.07900
C259        C  0.70857632  0.91779869  0.18072427     0.09700
C260        C  0.74121259  0.90126327  0.19722429    -0.17000
C261        C  0.14446077  0.95345242  0.55833026    -0.16200
C262        C  0.16128651  0.93657549  0.52598239     0.07900
C263        C  0.18093922  0.91683933  0.48811410     0.09700
C264        C  0.19776364  0.89995454  0.45579316    -0.17000
C265        C  0.55779811  0.95340589  0.14519108    -0.16200
C266        C  0.52547538  0.93651736  0.16202484     0.07900
C267        C  0.48763269  0.91676168  0.18167363     0.09700
C268        C  0.45532559  0.89986395  0.19848306    -0.17000
C269        C  0.14406591  0.54046117  0.05137378    -0.16200
C270        C  0.16066581  0.57306622  0.03482436     0.07900
C271        C  0.18004787  0.61126511  0.01553813     0.09700
C272        C  0.19663097  0.64387927  0.99903604    -0.17000
C273        C  0.14436748  0.46050584  0.05107797    -0.16200
C274        C  0.16125049  0.42817130  0.03425144     0.07900
C275        C  0.18099442  0.39031344  0.01460932     0.09700
C276        C  0.19788434  0.35799545  0.99780317    -0.17000
C277        C  0.99720808  0.64256592  0.99776720    -0.16200
C278        C  0.01407180  0.61024266  0.01458439     0.07900
C279        C  0.03378837  0.57238343  0.03424486     0.09700
C280        C  0.05065736  0.54005053  0.05108327    -0.17000
C281        C  0.99844467  0.35664096  0.99908482    -0.16200
C282        C  0.01500286  0.38927258  0.01557300     0.07900
C283        C  0.03436576  0.42748534  0.03484536     0.09700
C284        C  0.05095792  0.46009647  0.05138636    -0.17000
C285        C  0.05096186  0.54046921  0.14452492    -0.16200
C286        C  0.03441290  0.57309258  0.16109443     0.07900
C287        C  0.01512444  0.61132226  0.18041781     0.09700
C288        C  0.99862461  0.64396514  0.19695172    -0.17000
C289        C  0.05065932  0.46051339  0.14482912    -0.16200
C290        C  0.03379965  0.42818734  0.16168987     0.07900
C291        C  0.01409580  0.39034274  0.18139292     0.09700
C292        C  0.99723942  0.35803986  0.19825647    -0.17000
C293        C  0.19775766  0.64255411  0.19819870    -0.16200
C294        C  0.18091142  0.61023722  0.18135532     0.07900
C295        C  0.16121673  0.57238137  0.16166912     0.09700
C296        C  0.14436101  0.54005062  0.14481708    -0.17000
C297        C  0.19641643  0.35657268  0.19684909    -0.16200
C298        C  0.17991321  0.38922733  0.18034764     0.07900
C299        C  0.16061546  0.42746753  0.16106178     0.09700
C300        C  0.14405952  0.46009544  0.14451387    -0.17000
loop_ 
_geom_bond_atom_site_label_1 
_geom_bond_atom_site_label_2 
_geom_bond_distance 
_geom_bond_site_symmetry_2 
_ccdc_geom_bond_type 
C1            C2   1.569       .  S
C1            C4   1.569       .  S
C1          C296   1.484       .  S
C1          C300   1.483       .  S
C2            C3   1.569       .  S
C2          C285   1.483       .  S
C2          C289   1.484       .  S
C3            C4   1.569       .  S
C3          C280   1.484       .  S
C3          C284   1.483       .  S
C4          C269   1.483       .  S
C4          C273   1.484       .  S
N5            N6   1.323       .  A
N5            C9   1.345       .  A
N5          Cu13   2.073       .  S
N6            C7   1.345       .  A
N6          Cu12   2.072       .  S
C7            C8   1.379       .  A
C7           H10   1.082       .  S
C8            C9   1.379       .  A
C8          C264   1.436       .  S
C9           H11   1.082       .  S
Cu12         N15   2.072       .  S
Cu13         N23   2.073       .  S
Cu14         N16   2.073       .  S
Cu14         N22   2.073       .  S
N15          N16   1.323       .  A
N15          C19   1.345       .  A
N16          C17   1.345       .  A
C17          C18   1.379       .  A
C17          H20   1.082       .  S
C18          C19   1.379       .  A
C18         C268   1.436       .  S
C19          H21   1.082       .  S
N22          N23   1.323       .  A
N22          C26   1.345       .  A
N23          C24   1.345       .  A
C24          C25   1.379       .  A
C24          H27   1.082       .  S
C25          C26   1.379       .  A
C25         C293   1.436       .  S
C26          H28   1.082       .  S
C29          C30   1.569   1_565  S
C29          C31   1.569       .  S
C29         C257   1.483       .  S
C29         C265   1.484       .  S
C30          C32   1.569       .  S
C30         C249   1.484       .  S
C30         C256   1.483       .  S
C31          C32   1.569   1_565  S
C31         C244   1.484       .  S
C31         C245   1.483       .  S
C32         C233   1.483       .  S
C32         C240   1.484       .  S
N33          N34   1.323       .  A
N33          C37   1.345       .  A
N33         Cu41   2.072       .  S
N34          C35   1.345       .  A
N34         Cu40   2.073       .  S
C35          C36   1.379       .  A
C35          H38   1.082       .  S
C36          C37   1.379       .  A
C36         C232   1.436       .  S
C37          H39   1.082   1_655  S
Cu40         N43   2.073       .  S
Cu41         N51   2.072       .  S
Cu42         N44   2.073       .  S
Cu42         N50   2.073       .  S
N43          N44   1.323       .  A
N43          C47   1.345       .  A
N44          C45   1.345       .  A
C45          C46   1.379       .  A
C45          H48   1.082       .  S
C46          C47   1.379       .  A
C46         C252   1.436       .  S
C47          H49   1.082       .  S
N50          N51   1.323       .  A
N50          C54   1.345       .  A
N51          C52   1.345       .  A
C52          C53   1.379       .  A
C52          H55   1.082   1_655  S
C53          C54   1.379       .  A
C53         C292   1.436       .  S
C54          H56   1.082       .  S
C57          C58   1.569       .  S
C57          C59   1.569   1_565  S
C57         C228   1.483       .  S
C57         C261   1.484       .  S
C58          C60   1.569   1_565  S
C58         C217   1.484       .  S
C58         C224   1.483       .  S
C59          C60   1.569       .  S
C59         C212   1.484       .  S
C59         C213   1.483       .  S
C60         C205   1.483       .  S
C60         C229   1.484       .  S
N61          N62   1.323       .  A
N61          C65   1.345       .  A
N61         Cu69   2.072       .  S
N62          C63   1.345       .  A
N62         Cu68   2.072       .  S
C63          C64   1.379       .  A
C63          H66   1.082       .  S
C64          C65   1.379       .  A
C64         C276   1.436       .  S
C65          H67   1.082   1_556  S
Cu68         N71   2.072       .  S
Cu69         N79   2.072       .  S
Cu70         N72   2.073       .  S
Cu70         N78   2.073       .  S
N71          N72   1.323       .  A
N71          C75   1.345       .  A
N72          C73   1.345       .  A
C73          C74   1.379       .  A
C73          H76   1.082       .  S
C74          C75   1.379       .  A
C74         C209   1.436       .  S
C75          H77   1.082       .  S
N78          N79   1.323       .  A
N78          C82   1.345       .  A
N79          C80   1.345       .  A
C80          C81   1.379       .  A
C80          H83   1.082   1_556  S
C81          C82   1.379       .  A
C81         C237   1.436       .  S
C82          H84   1.082       .  S
N85          N86   1.323       .  A
N85          C89   1.345       .  A
N85         Cu93   2.072       .  S
N86          C87   1.345       .  A
N86         Cu92   2.071       .  S
C87          C88   1.379       .  A
C87          H90   1.082       .  S
C88          C89   1.379       .  A
C88         C272   1.435       .  S
C89          H91   1.082   1_556  S
Cu92         N95   2.071       .  S
Cu93        N103   2.072       .  S
Cu94         N96   2.072       .  S
Cu94        N102   2.072       .  S
N95          N96   1.323       .  A
N95          C99   1.345       .  A
N96          C97   1.345       .  A
C97          C98   1.379       .  A
C97         H100   1.082       .  S
C98          C99   1.379       .  A
C98         C225   1.435       .  S
C99         H101   1.082       .  S
N102        N103   1.323       .  A
N102        C106   1.345       .  A
N103        C104   1.345       .  A
C104        C105   1.379       .  A
C104        H107   1.082   1_556  S
C105        C106   1.379       .  A
C105        C248   1.435       .  S
C106        H108   1.082       .  S
N109        N110   1.323       .  A
N109        C113   1.345       .  A
N109       Cu117   2.072       .  S
N110        C111   1.345       .  A
N110       Cu116   2.071       .  S
C111        C112   1.379       .  A
C111        H114   1.082   1_655  S
C112        C113   1.379       .  A
C112        C281   1.435       .  S
C113        H115   1.082   1_556  S
Cu116       N119   2.071       .  S
Cu117       N127   2.072       .  S
Cu118       N120   2.072       .  S
Cu118       N126   2.072       .  S
N119        N120   1.323       .  A
N119        C123   1.345       .  A
N120        C121   1.345       .  A
C121        C122   1.379       .  A
C121        H124   1.082       .  S
C122        C123   1.379       .  A
C122        C208   1.435       .  S
C123        H125   1.082   1_655  S
N126        N127   1.323       .  A
N126        C130   1.345       .  A
N127        C128   1.345       .  A
C128        C129   1.379       .  A
C128        H131   1.082   1_556  S
C129        C130   1.379       .  A
C129        C236   1.435       .  S
C130        H132   1.082       .  S
N133        N134   1.323       .  A
N133        C137   1.345       .  A
N133       Cu141   2.072       .  S
N134        C135   1.345       .  A
N134       Cu140   2.072       .  S
C135        C136   1.379       .  A
C135        H138   1.082       .  S
C136        C137   1.379       .  A
C136        C288   1.435       .  S
C137        H139   1.082   1_655  S
Cu140       N143   2.072       .  S
Cu141       N151   2.072       .  S
Cu142       N144   2.072       .  S
Cu142       N150   2.072       .  S
N143        N144   1.323       .  A
N143        C147   1.345       .  A
N144        C145   1.345       .  A
C145        C146   1.379       .  A
C145        H148   1.082       .  S
C146        C147   1.379       .  A
C146        C260   1.435       .  S
C147        H149   1.082       .  S
N150        N151   1.323       .  A
N150        C154   1.345       .  A
N151        C152   1.345       .  A
C152        C153   1.379       .  A
C152        H155   1.082   1_655  S
C153        C154   1.379       .  A
C153        C221   1.435       .  S
C154        H156   1.082       .  S
N157        N158   1.323       .  A
N157        C161   1.345       .  A
N157       Cu165   2.072       .  S
N158        C159   1.345       .  A
N158       Cu164   2.072       .  S
C159        C160   1.379       .  A
C159        H162   1.082   1_655  S
C160        C161   1.379       .  A
C160        C220   1.436       .  S
C161        H163   1.082       .  S
Cu164       N167   2.072       .  S
Cu165       N175   2.072       .  S
Cu166       N168   2.072       .  S
Cu166       N174   2.072       .  S
N167        N168   1.323       .  A
N167        C171   1.345       .  A
N168        C169   1.345       .  A
C169        C170   1.379       .  A
C169        H172   1.082   1_556  S
C170        C171   1.379       .  A
C170        C277   1.436       .  S
C171        H173   1.082   1_655  S
N174        N175   1.323       .  A
N174        C178   1.345       .  A
N175        C176   1.345       .  A
C176        C177   1.379       .  A
C176        H179   1.082       .  S
C177        C178   1.379       .  A
C177        C241   1.436       .  S
C178        H180   1.082   1_556  S
N181        N182   1.323       .  A
N181        C185   1.345       .  A
N181       Cu189   2.071       .  S
N182        C183   1.345       .  A
N182       Cu188   2.071       .  S
C183        C184   1.379       .  A
C183        H186   1.082       .  S
C184        C185   1.379       .  A
C184        C253   1.435       .  S
C185        H187   1.082       .  S
Cu188       N191   2.071       .  S
Cu189       N199   2.071       .  S
Cu190       N192   2.072       .  S
Cu190       N198   2.072       .  S
N191        N192   1.323       .  A
N191        C195   1.345       .  A
N192        C193   1.345       .  A
C193        C194   1.379       .  A
C193        H196   1.082       .  S
C194        C195   1.379       .  A
C194        C216   1.435       .  S
C195        H197   1.082       .  S
N198        N199   1.323       .  A
N198        C202   1.345       .  A
N199        C200   1.345       .  A
C200        C201   1.379       .  A
C200        H203   1.082       .  S
C201        C202   1.379       .  A
C201        C297   1.435       .  S
C202        H204   1.082       .  S
C205        C206   1.205       .  T
C206        C207   1.410       .  S
C207        C208   1.205   1_455  T
C209        C210   1.205       .  T
C210        C211   1.410       .  S
C211        C212   1.206       .  T
C213        C214   1.205       .  T
C214        C215   1.410       .  S
C215        C216   1.205       .  T
C217        C218   1.205       .  T
C218        C219   1.410       .  S
C219        C220   1.205   1_455  T
C221        C222   1.205   1_655  T
C222        C223   1.410       .  S
C223        C224   1.205       .  T
C225        C226   1.205       .  T
C226        C227   1.410       .  S
C227        C228   1.205       .  T
C229        C230   1.206       .  T
C230        C231   1.410       .  S
C231        C232   1.205   1_455  T
C233        C234   1.205       .  T
C234        C235   1.410       .  S
C235        C236   1.205   1_554  T
C237        C238   1.205   1_556  T
C238        C239   1.410       .  S
C239        C240   1.205       .  T
C241        C242   1.205   1_556  T
C242        C243   1.410       .  S
C243        C244   1.205       .  T
C245        C246   1.205       .  T
C246        C247   1.410       .  S
C247        C248   1.205   1_554  T
C249        C250   1.206       .  T
C250        C251   1.410       .  S
C251        C252   1.205       .  T
C253        C254   1.204       .  T
C254        C255   1.410       .  S
C255        C256   1.205       .  T
C257        C258   1.205       .  T
C258        C259   1.410       .  S
C259        C260   1.205       .  T
C261        C262   1.205       .  T
C262        C263   1.410       .  S
C263        C264   1.205       .  T
C265        C266   1.205       .  T
C266        C267   1.410       .  S
C267        C268   1.205       .  T
C269        C270   1.205       .  T
C270        C271   1.410       .  S
C271        C272   1.205   1_554  T
C273        C274   1.205       .  T
C274        C275   1.410       .  S
C275        C276   1.205   1_554  T
C277        C278   1.205   1_656  T
C278        C279   1.410       .  S
C279        C280   1.205       .  T
C281        C282   1.205   1_656  T
C282        C283   1.410       .  S
C283        C284   1.205       .  T
C285        C286   1.205       .  T
C286        C287   1.410       .  S
C287        C288   1.205   1_455  T
C289        C290   1.206       .  T
C290        C291   1.410       .  S
C291        C292   1.205   1_455  T
C293        C294   1.205       .  T
C294        C295   1.410       .  S
C295        C296   1.206       .  T
C297        C298   1.205       .  T
C298        C299   1.410       .  S
C299        C300   1.205       .  T
