geometry optimzed in LAMMPS
_audit_creation_date              2020-12-01 
_audit_creation_method            'lammps2cif' 
_symmetry_space_group_name_H-M    'P1' 
_symmetry_Int_Tables_number       1 
_symmetry_cell_setting            triclinic 
loop_ 
_symmetry_equiv_pos_as_xyz 
  x,y,z 
_cell_length_a                    30.15492019 
_cell_length_b                    30.15370411084684 
_cell_length_c                    60.238166756525885 
_cell_angle_alpha                 89.82384800434637 
_cell_angle_beta                  89.71715747491398 
_cell_angle_gamma                 90.13328709852733 
loop_ 
_atom_site_label 
_atom_site_type_symbol 
_atom_site_fract_x 
_atom_site_fract_y 
_atom_site_fract_z 
_atom_site_charge 
N1          N  0.06645257  0.99751895  0.09855836    -0.26800
N2          N  0.08721969  0.00651393  0.11729957    -0.34600
C3          C  0.13119545  0.00763388  0.11344188     0.01600
C4          C  0.13876912  0.99849447  0.09123027     0.07600
C5          C  0.09680615  0.99284769  0.08226477    -0.05500
H6          H  0.15594187  0.01381769  0.12600902     0.08200
H7          H  0.08874864  0.98627912  0.06511012     0.09400
Cu8        Cu  0.05532190  0.01426525  0.14761394     0.44200
Cu9        Cu  0.99771598  0.99064696  0.09619898     0.42000
Cu10       Cu  0.93888323  0.98562099  0.14856173     0.43900
N11         N  0.01784628  0.00935100  0.17645361    -0.34200
N12         N  0.97616076  0.99565170  0.17681144    -0.28400
C13         C  0.96268486  0.99126614  0.19800676    -0.04500
C14         C  0.99730137  0.00365193  0.21156043     0.07700
C15         C  0.03169609  0.01515082  0.19743577     0.01500
H16         H  0.92997242  0.98039811  0.20313727     0.09100
H17         H  0.06483742  0.02525224  0.20205825     0.08200
N18         N  0.90763003  0.98363769  0.11810776    -0.35600
N19         N  0.92888608  0.98499790  0.09888795    -0.27800
C20         C  0.89886749  0.98411321  0.08243008    -0.03000
C21         C  0.85661833  0.98198444  0.09171137     0.05600
C22         C  0.86371142  0.98237748  0.11442398     0.03700
H23         H  0.90719804  0.98538635  0.06494717     0.08800
H24         H  0.83896550  0.98351202  0.12744017     0.07600
N25         N  0.01779099  0.06711806  0.34866083    -0.26800
N26         N  0.02820100  0.08654994  0.32963880    -0.34600
C27         C  0.03489628  0.13006027  0.33315028     0.01600
C28         C  0.02888391  0.13856601  0.35552828     0.07600
C29         C  0.01767516  0.09785244  0.36480495    -0.05500
H30         H  0.04218354  0.15400037  0.32021765     0.08200
H31         H  0.00787723  0.09135890  0.38180486     0.09400
Cu32       Cu  0.02719399  0.05447074  0.29934707     0.44200
Cu33       Cu  0.00074952  0.00037019  0.35132085     0.42000
Cu34       Cu  0.97427924  0.94674373  0.29930332     0.43900
N35         N  0.01072650  0.02051301  0.27076743    -0.34200
N36         N  0.98819824  0.98283421  0.27078160    -0.28400
C37         C  0.97934931  0.97141296  0.24970314    -0.04500
C38         C  0.99795130  0.00302740  0.23585651     0.07700
C39         C  0.01774904  0.03356491  0.24967893     0.01500
H40         H  0.96184072  0.94166322  0.24482010     0.09100
H41         H  0.03502794  0.06357725  0.24481452     0.08200
N42         N  0.97441839  0.91410984  0.32962659    -0.35600
N43         N  0.98467602  0.93344406  0.34858850    -0.27800
C44         C  0.98549178  0.90250970  0.36472055    -0.03000
C45         C  0.97483085  0.86172731  0.35554442     0.05600
C46         C  0.96843840  0.87044621  0.33319958     0.03700
H47         H  0.99542535  0.90898895  0.38162976     0.08800
H48         H  0.96125685  0.84657772  0.32032747     0.07600
C49         C  0.99684283  0.59284191  0.44963379    -0.10400
C50         C  0.99736080  0.61569326  0.46972415    -0.04200
C51         C  0.99738709  0.59356693  0.49012205    -0.10300
C52         C  0.99773179  0.54660482  0.49057556     0.10600
C53         C  0.99777412  0.52281622  0.47021586    -0.02100
C54         C  0.99731169  0.54603373  0.44965170     0.10400
C55         C  0.99757225  0.52195577  0.42972111    -0.12100
C56         C  0.99840427  0.47576304  0.42989716    -0.12100
C57         C  0.99898221  0.45207613  0.45000859     0.10400
C58         C  0.99827783  0.47573214  0.47039310    -0.02100
C59         C  0.99763215  0.52283109  0.51068863    -0.12300
C60         C  0.99801980  0.47650997  0.51086231    -0.12300
C61         C  0.99837151  0.45237971  0.49092892     0.10600
C62         C  0.99927971  0.40546271  0.49083041    -0.10300
C63         C  0.99986164  0.38285604  0.47063826    -0.04200
C64         C  0.00017232  0.40524570  0.45035132    -0.10400
H65         H  0.99730176  0.53873742  0.41380588     0.07900
H66         H  0.99860233  0.45867561  0.41411426     0.07900
H67         H  0.99724656  0.53992266  0.52646418     0.08100
H68         H  0.99817468  0.45968308  0.52676377     0.08100
H69         H  0.99726599  0.65169761  0.46947969     0.04500
H70         H  0.00072387  0.34685770  0.47072330     0.04500
N71         N  0.93103375  0.00351746  0.84520291    -0.26800
N72         N  0.91103978  0.01017469  0.82600362    -0.34600
C73         C  0.86699229  0.01240511  0.82938000     0.01600
C74         C  0.85856414  0.00758786  0.85187525     0.07600
C75         C  0.90002625  0.00156274  0.86134193    -0.05500
H76         H  0.84290756  0.01564089  0.81624214     0.08200
H77         H  0.90709881  0.99579950  0.87870694     0.09400
Cu78       Cu  0.94376570  0.01311767  0.79577756     0.44200
Cu79       Cu  0.99950634  0.99524521  0.84824172     0.42000
Cu80       Cu  0.05828649  0.97945404  0.79621279     0.43900
N81         N  0.98150806  0.00508556  0.76734741    -0.34200
N82         N  0.02243969  0.98948506  0.76745443    -0.28400
C83         C  0.03637691  0.98420713  0.74639455    -0.04500
C84         C  0.00284975  0.99802729  0.73249043     0.07700
C85         C  0.96864674  0.01126275  0.74623705     0.01500
H86         H  0.06880393  0.97217606  0.74159542     0.09100
H87         H  0.93634986  0.02319598  0.74128294     0.08200
N88         N  0.08906791  0.97993419  0.82683933    -0.35600
N89         N  0.06800774  0.98602441  0.84588261    -0.27800
C90         C  0.09799833  0.98633598  0.86237718    -0.03000
C91         C  0.13988651  0.97976721  0.85329947     0.05600
C92         C  0.13280227  0.97639594  0.83067640     0.03700
H93         H  0.08995717  0.99133572  0.87971508     0.08800
H94         H  0.15765635  0.97328929  0.81778120     0.07600
N95         N  0.01100164  0.93021404  0.59530153    -0.26800
N96         N  0.01854074  0.90985732  0.61438437    -0.34600
C97         C  0.02062173  0.86587941  0.61093526     0.01600
C98         C  0.01376150  0.85790348  0.58861250     0.07600
C99         C  0.00834531  0.89952996  0.57915498    -0.05500
H100        H  0.02657462  0.84155634  0.62380817     0.08200
H101        H  0.00183759  0.90686014  0.56188216     0.09400
Cu102      Cu  0.02221494  0.94185754  0.64466493     0.44200
Cu103      Cu  0.00232295  0.99867064  0.59251471     0.42000
Cu104      Cu  0.98162532  0.05410618  0.64477498     0.43900
N105        N  0.01177951  0.97816846  0.67328775    -0.34200
N106        N  0.99342558  0.01794052  0.67332370    -0.28400
C107        C  0.98716899  0.03100060  0.69441388    -0.04500
C108        C  0.00316926  0.99818678  0.70821383     0.07700
C109        C  0.01871059  0.96524235  0.69436513     0.01500
H110        H  0.97299420  0.06244692  0.69930508     0.09100
H111        H  0.03268783  0.93367661  0.69922809     0.08200
N112        N  0.98500578  0.08683204  0.61460469    -0.35600
N113        N  0.99319109  0.06700401  0.59548055    -0.27800
C114        C  0.99575305  0.09807893  0.57941959    -0.03000
C115        C  0.98952761  0.13944614  0.58896450     0.05600
C116        C  0.98227932  0.13084123  0.61126550     0.03700
H117        H  0.00256914  0.09117841  0.56212083     0.08800
H118        H  0.97543219  0.15469727  0.62419512     0.07600
C119        C  0.59285665  0.99311227  0.95126609    -0.10400
C120        C  0.61538892  0.99058121  0.97140938    -0.04200
C121        C  0.59300573  0.98924967  0.99171808    -0.10300
C122        C  0.54613195  0.99093758  0.99216507     0.10600
C123        C  0.52249459  0.99198462  0.97181336    -0.02100
C124        C  0.54591062  0.99273468  0.95124377     0.10400
C125        C  0.52182208  0.99328049  0.93134230    -0.12100
C126        C  0.47558338  0.99187065  0.93154397    -0.12100
C127        C  0.45175864  0.99188943  0.95165778     0.10400
C128        C  0.47537164  0.99257871  0.97202895    -0.02100
C129        C  0.52235835  0.99175075  0.01228967    -0.12300
C130        C  0.47611176  0.99392904  0.01250024    -0.12300
C131        C  0.45195848  0.99388673  0.99260052     0.10600
C132        C  0.40500416  0.99549215  0.99254508    -0.10300
C133        C  0.38251836  0.99292005  0.97237895    -0.04200
C134        C  0.40487449  0.99100342  0.95206774    -0.10400
H135        H  0.53862228  0.99407758  0.91542490     0.07900
H136        H  0.45856940  0.99132968  0.91576746     0.07900
H137        H  0.53945418  0.99122315  0.02805076     0.08100
H138        H  0.45939338  0.99522696  0.02842301     0.08100
H139        H  0.65139681  0.99025317  0.97129433     0.04500
H140        H  0.34650873  0.99275317  0.97248507     0.04500
C141        C  0.18298132  0.98033403  0.86513833    -0.11500
C142        C  0.21830389  0.95162205  0.85951344     0.04000
C143        C  0.25826975  0.95372409  0.87124213    -0.12000
C144        C  0.26369855  0.98334166  0.88893783     0.18900
C145        C  0.22847568  0.01191792  0.89458742    -0.09000
C146        C  0.18873542  0.01023715  0.88272679    -0.02000
H147        H  0.28492413  0.93127785  0.86691585     0.05400
C148        C  0.30514215  0.98245703  0.90214263     0.20800
H149        H  0.16211190  0.03248879  0.88733537     0.10600
C150        C  0.33177171  0.02069656  0.90336253    -0.15400
C151        C  0.36690505  0.02323686  0.91845367     0.03600
C152        C  0.37673847  0.98655363  0.93207571    -0.10700
C153        C  0.35223924  0.94728210  0.92963467    -0.00700
C154        C  0.31651515  0.94504138  0.91499585    -0.05900
H155        H  0.32355857  0.04955782  0.89345955     0.06600
H156        H  0.35901781  0.91919568  0.94035361     0.10000
Br157      Br  0.23196962  0.05240052  0.91907137    -0.05600
Br158      Br  0.21304371  0.90593045  0.83755890    -0.02500
Br159      Br  0.39738713  0.07875673  0.92150406     0.00300
Br160      Br  0.28150806  0.89178555  0.91522373    -0.04100
C161        C  0.62089527  0.99799408  0.93108094    -0.11500
C162        C  0.63013996  0.96173911  0.91714163     0.04000
C163        C  0.66521987  0.96437166  0.90182324    -0.12000
C164        C  0.69233952  0.00230694  0.90064659     0.18900
C165        C  0.68163202  0.03933149  0.91386115    -0.09000
C166        C  0.64598365  0.03700651  0.92874141    -0.02000
H167        H  0.67298258  0.93578032  0.89168665     0.05400
C168        C  0.73367982  0.00146234  0.88714078     0.20800
H169        H  0.63972692  0.06474237  0.93971132     0.10600
C170        C  0.73918560  0.03149579  0.86950300    -0.15400
C171        C  0.77933067  0.03413111  0.85773130     0.03600
C172        C  0.81483493  0.00567246  0.86332192    -0.10700
C173        C  0.80884629  0.97507497  0.88071400    -0.00700
C174        C  0.76889366  0.97278600  0.89257347    -0.05900
H175        H  0.71249383  0.05396242  0.86531513     0.06600
H176        H  0.83554980  0.95291495  0.88525371     0.10000
Br177      Br  0.71754087  0.09199789  0.91422439    -0.05600
Br178      Br  0.59889077  0.90657144  0.92007623    -0.02500
Br179      Br  0.78451745  0.08021896  0.83580925     0.00300
Br180      Br  0.76520698  0.93153737  0.91686199    -0.04100
C181        C  0.98962474  0.18304515  0.57749466    -0.11500
C182        C  0.01045453  0.22100548  0.58649749     0.04000
C183        C  0.01004168  0.26116657  0.57474828    -0.12000
C184        C  0.98939199  0.26438442  0.55403131     0.18900
C185        C  0.96915484  0.22649387  0.54489419    -0.09000
C186        C  0.96926477  0.18641674  0.55664500    -0.02000
H187        H  0.02686512  0.28981830  0.58155233     0.05400
C188        C  0.99306278  0.30611352  0.54116432     0.20800
H189        H  0.95354517  0.15762503  0.54936079     0.10600
C190        C  0.03392496  0.31689800  0.53133175    -0.15400
C191        C  0.03740226  0.35221686  0.51634334     0.03600
C192        C  0.99965432  0.37754758  0.51109761    -0.10700
C193        C  0.95952602  0.36883842  0.52218051    -0.00700
C194        C  0.95606288  0.33344745  0.53722691    -0.05900
H195        H  0.06268477  0.29637277  0.53446143     0.06600
H196        H  0.93023924  0.38790036  0.51812352     0.10000
Br197      Br  0.94317996  0.22713451  0.51586592    -0.05600
Br198      Br  0.04387000  0.21955124  0.61352600    -0.02500
Br199      Br  0.09353885  0.36271369  0.50210214     0.00300
Br200      Br  0.89985893  0.32230666  0.55122088    -0.04100
C201        C  0.99746985  0.62194894  0.51020104    -0.11500
C202        C  0.96100301  0.64961213  0.51489819     0.04000
C203        C  0.96536746  0.68426444  0.53008693    -0.12000
C204        C  0.00588968  0.69224174  0.54065395     0.18900
C205        C  0.04149325  0.66283825  0.53715567    -0.09000
C206        C  0.03714198  0.62803185  0.52192305    -0.02000
H207        H  0.93768454  0.70646855  0.53282261     0.05400
C208        C  0.01091661  0.73342457  0.55372654     0.20800
H209        H  0.06550353  0.60723713  0.51830648     0.10600
C210        C  0.98828294  0.73767201  0.57397804    -0.15400
C211        C  0.98894929  0.77771118  0.58571405     0.03600
C212        C  0.01270618  0.81450263  0.57714171    -0.10700
C213        C  0.03510493  0.81015790  0.55678167    -0.00700
C214        C  0.03433363  0.77014939  0.54507943    -0.05900
H215        H  0.96910465  0.71000001  0.58040054     0.05000
H216        H  0.05311123  0.83813108  0.54985963     0.10000
Br217      Br  0.09705303  0.67035096  0.55207194    -0.05600
Br218      Br  0.90552311  0.64320260  0.49975089    -0.02500
Br219      Br  0.95316796  0.78106882  0.61209785     0.00300
Br220      Br  0.06363722  0.76802352  0.51673866    -0.04100
C221        C  0.02824668  0.18259294  0.36641061    -0.11500
C222        C  0.04495655  0.18905342  0.38801708     0.04000
C223        C  0.04056745  0.23037679  0.39825646    -0.12000
C224        C  0.02009393  0.26586188  0.38730400     0.18900
C225        C  0.00548739  0.26030475  0.36536283    -0.09000
C226        C  0.00959733  0.21889875  0.35509213    -0.02000
H227        H  0.05267617  0.23473478  0.41502129     0.05400
C228        C  0.01261450  0.30739766  0.39971062     0.20800
H229        H  0.99708172  0.21482573  0.33839929     0.10600
C230        C  0.04886784  0.33478543  0.40469205    -0.15400
C231        C  0.04442149  0.36965831  0.41982553     0.03600
C232        C  0.00320929  0.37742469  0.43018685    -0.10700
C233        C  0.96644305  0.35150942  0.42428403    -0.00700
C234        C  0.97086945  0.31664754  0.40918384    -0.05900
H235        H  0.08117892  0.32758666  0.39765137     0.06600
H236        H  0.93485238  0.35667718  0.43251673     0.10000
Br237      Br  0.97961493  0.30828096  0.34898349    -0.05600
Br238      Br  0.07624907  0.14380205  0.40398680    -0.02500
Br239      Br  0.09637007  0.40288476  0.42757911     0.00300
Br240      Br  0.92017441  0.27966754  0.40380954    -0.04100
C241        C  0.97594034  0.81755944  0.36646179    -0.11500
C242        C  0.96015457  0.81081061  0.38833707     0.04000
C243        C  0.96432797  0.76916644  0.39836515    -0.12000
C244        C  0.98361335  0.73358712  0.38697565     0.18900
C245        C  0.99765917  0.73953545  0.36488720    -0.09000
C246        C  0.99381562  0.78127987  0.35481360    -0.02000
H247        H  0.95261966  0.76450327  0.41525374     0.05400
C248        C  0.98929908  0.69112341  0.39892117     0.20800
H249        H  0.00570334  0.78554548  0.33794487     0.10600
C250        C  0.95167681  0.66561787  0.40414977    -0.15400
C251        C  0.95438830  0.63031096  0.41920770     0.03600
C252        C  0.99520500  0.62025838  0.42925537    -0.10700
C253        C  0.03332551  0.64393117  0.42293867    -0.00700
C254        C  0.03065817  0.67921711  0.40790219    -0.05900
H255        H  0.91969714  0.67474705  0.39742942     0.06600
H256        H  0.06468397  0.63686694  0.43089902     0.10000
Br257      Br  0.02190318  0.69151330  0.34795168    -0.05600
Br258      Br  0.92999902  0.85585549  0.40500670    -0.02500
Br259      Br  0.90086867  0.59966974  0.42730590     0.00300
Br260      Br  0.08339869  0.71311083  0.40209763    -0.04100
C261        C  0.37690955  0.99997585  0.01276378    -0.11500
C262        C  0.34933705  0.03733885  0.01535478     0.04000
C263        C  0.31482641  0.03667857  0.03092599    -0.12000
C264        C  0.30730837  0.99934570  0.04438701     0.18900
C265        C  0.33673970  0.96310895  0.04287541    -0.09000
C266        C  0.37104238  0.96352427  0.02703711    -0.02000
H267        H  0.29247036  0.06469908  0.03181485     0.05400
C268        C  0.26593689  0.99725721  0.05788915     0.20800
H269        H  0.39177122  0.93448754  0.02511770     0.10600
C270        C  0.23364531  0.96542744  0.05261666    -0.15400
C271        C  0.19244747  0.96464703  0.06345263     0.03600
C272        C  0.18247067  0.99677533  0.07974538    -0.10700
C273        C  0.21526939  0.02794363  0.08539352    -0.00700
C274        C  0.25655626  0.02850523  0.07460282    -0.05900
H275        H  0.24038914  0.94122752  0.03978215     0.06600
H276        H  0.20851478  0.05256150  0.09801725     0.10000
Br277      Br  0.33075346  0.91203647  0.06172940    -0.05600
Br278      Br  0.35581461  0.08901000  0.99690162    -0.02500
Br279      Br  0.15274270  0.91707852  0.05615968     0.00300
Br280      Br  0.29924720  0.07217781  0.08349397    -0.04100
C281        C  0.62113728  0.98665706  0.01175682    -0.11500
C282        C  0.63405344  0.02534232  0.02304088     0.04000
C283        C  0.66935956  0.02386445  0.03803013    -0.12000
C284        C  0.69286997  0.98434705  0.04158852     0.18900
C285        C  0.67858796  0.94517634  0.03106032    -0.09000
C286        C  0.64288733  0.94659682  0.01633153    -0.02000
H287        H  0.68001613  0.05413560  0.04607086     0.05400
C288        C  0.73409811  0.98526973  0.05487877     0.20800
H289        H  0.63389376  0.91691864  0.00729318     0.10600
C290        C  0.73606537  0.96180605  0.07495946    -0.15400
C291        C  0.77532675  0.96006069  0.08727691     0.03600
C292        C  0.81364335  0.98289449  0.07966806    -0.10700
C293        C  0.81121904  0.00673998  0.05961539    -0.00700
C294        C  0.77211763  0.00796544  0.04724340    -0.05900
H295        H  0.70709673  0.94385288  0.08081279     0.06600
H296        H  0.83996919  0.02453343  0.05341566     0.10000
Br297      Br  0.70958761  0.89002372  0.03437478    -0.05600
Br298      Br  0.60742883  0.08162454  0.01671899    -0.02500
Br299      Br  0.77464765  0.92258785  0.11308821     0.00300
Br300      Br  0.77307386  0.03933456  0.01945124    -0.04100
loop_ 
_geom_bond_atom_site_label_1 
_geom_bond_atom_site_label_2 
_geom_bond_distance 
_geom_bond_site_symmetry_2 
_ccdc_geom_bond_type 
N1            N2   1.322   1_565  A
N1            C5   1.347       .  A
N1           Cu9   2.088   1_455  S
N2            C3   1.345       .  A
N2           Cu8   2.074       .  S
C3            C4   1.385   1_545  A
C3            H6   1.082       .  S
C4            C5   1.389       .  A
C4          C272   1.486       .  S
C5            H7   1.081       .  S
Cu8          N11   2.073       .  S
Cu9          N19   2.088       .  S
Cu10         N12   2.067       .  S
Cu10         N18   2.068       .  S
N11          N12   1.322   1_445  A
N11          C15   1.345       .  A
N12          C13   1.344       .  A
C13          C14   1.380   1_565  A
C13          H16   1.082       .  S
C14          C15   1.381   1_655  A
C14          C38   1.464       .  S
C15          H17   1.082       .  S
N18          N19   1.321       .  A
N18          C22   1.344       .  A
N19          C20   1.346       .  A
C20          C21   1.390       .  A
C20          H23   1.082       .  S
C21          C22   1.386       .  A
C21         C292   1.489       .  S
C22          H24   1.080       .  S
N25          N26   1.321       .  A
N25          C29   1.345       .  A
N25         Cu33   2.082       .  S
N26          C27   1.345       .  A
N26         Cu32   2.068       .  S
C27          C28   1.384       .  A
C27          H30   1.082       .  S
C28          C29   1.388       .  A
C28         C221   1.483       .  S
C29          H31   1.082       .  S
Cu32         N35   2.068       .  S
Cu33         N43   2.082   1_445  S
Cu34         N36   2.072       .  S
Cu34         N42   2.072       .  S
N35          N36   1.322   1_445  A
N35          C39   1.344       .  A
N36          C37   1.344       .  A
C37          C38   1.381   1_565  A
C37          H40   1.082       .  S
C38          C39   1.380   1_655  A
C39          H41   1.082       .  S
N42          N43   1.322       .  A
N42          C46   1.345       .  A
N43          C44   1.345       .  A
C44          C45   1.388       .  A
C44          H47   1.081       .  S
C45          C46   1.385       .  A
C45         C241   1.484       .  S
C46          H48   1.082       .  S
C49          C50   1.395       .  A
C49          C54   1.412       .  A
C49         C252   1.479       .  S
C50          C51   1.396       .  A
C50          H69   1.086       .  S
C51          C52   1.416       .  A
C51         C201   1.484       .  S
C52          C53   1.423       .  A
C52          C59   1.406       .  A
C53          C54   1.421       .  A
C53          C58   1.420       .  A
C54          C55   1.405       .  A
C55          C56   1.393       .  A
C55          H65   1.083       .  S
C56          C57   1.405       .  A
C56          H66   1.083       .  S
C57          C58   1.422       .  A
C57          C64   1.413   1_655  A
C58          C61   1.422       .  A
C59          C60   1.397       .  A
C59          H67   1.082       .  S
C60          C61   1.406       .  A
C60          H68   1.083       .  S
C61          C62   1.415       .  A
C62          C63   1.396       .  A
C62         C192   1.481       .  S
C63          C64   1.394   1_655  A
C63          H70   1.086   1_655  S
C64         C232   1.481       .  S
N71          N72   1.322       .  A
N71          C75   1.347       .  A
N71         Cu79   2.089   1_545  S
N72          C73   1.345       .  A
N72         Cu78   2.068       .  S
C73          C74   1.385       .  A
C73          H76   1.081       .  S
C74          C75   1.389       .  A
C74         C172   1.486       .  S
C75          H77   1.082   1_545  S
Cu78         N81   2.067       .  S
Cu79         N89   2.089   1_655  S
Cu80         N82   2.068       .  S
Cu80         N88   2.069       .  S
N81          N82   1.322   1_645  A
N81          C85   1.344       .  A
N82          C83   1.344       .  A
C83          C84   1.380       .  A
C83          H86   1.082       .  S
C84          C85   1.380   1_465  A
C84         C108   1.462       .  S
C85          H87   1.082       .  S
N88          N89   1.322       .  A
N88          C92   1.344       .  A
N89          C90   1.347       .  A
C90          C91   1.389       .  A
C90          H93   1.082       .  S
C91          C92   1.384       .  A
C91         C141   1.486       .  S
C92          H94   1.081       .  S
N95          N96   1.322       .  A
N95          C99   1.347       .  A
N95        Cu103   2.088       .  S
N96          C97   1.344       .  A
N96        Cu102   2.069       .  S
C97          C98   1.383       .  A
C97         H100   1.082       .  S
C98          C99   1.387       .  A
C98         C212   1.482       .  S
C99         H101   1.082       .  S
Cu102       N105   2.068       .  S
Cu103       N113   2.088   1_465  S
Cu104       N106   2.066       .  S
Cu104       N112   2.067       .  S
N105        N106   1.322   1_465  A
N105        C109   1.344       .  A
N106        C107   1.344       .  A
C107        C108   1.380   1_645  A
C107        H110   1.082       .  S
C108        C109   1.381       .  A
C109        H111   1.082       .  S
N112        N113   1.322       .  A
N112        C116   1.344       .  A
N113        C114   1.347       .  A
C114        C115   1.388       .  A
C114        H117   1.082   1_655  S
C115        C116   1.384       .  A
C115        C181   1.483       .  S
C116        H118   1.081       .  S
C119        C120   1.396       .  A
C119        C124   1.416       .  A
C119        C161   1.484       .  S
C120        C121   1.395       .  A
C120        H139   1.086       .  S
C121        C122   1.415       .  A
C121        C281   1.481   1_556  S
C122        C123   1.421       .  A
C122        C129   1.406   1_556  A
C123        C124   1.423       .  A
C123        C128   1.421       .  A
C124        C125   1.405       .  A
C125        C126   1.395       .  A
C125        H135   1.082       .  S
C126        C127   1.406       .  A
C126        H136   1.082       .  S
C127        C128   1.422       .  A
C127        C134   1.414       .  A
C128        C131   1.424       .  A
C129        C130   1.396       .  A
C129        H137   1.083       .  S
C130        C131   1.406   1_554  A
C130        H138   1.082       .  S
C131        C132   1.417       .  A
C132        C133   1.396       .  A
C132        C261   1.487   1_556  S
C133        C134   1.395       .  A
C133        H140   1.086       .  S
C134        C152   1.483       .  S
C141        C142   1.415       .  A
C141        C146   1.405   1_565  A
C142        C143   1.401       .  A
C142       Br158   1.920       .  S
C143        C144   1.403       .  A
C143        H147   1.083       .  S
C144        C145   1.410   1_565  A
C144        C148   1.485       .  S
C145        C146   1.399       .  A
C145       Br157   1.921       .  S
C146        H149   1.083       .  S
C148        C150   1.406   1_565  A
C148        C154   1.410       .  A
C150        C151   1.402       .  A
C150        H155   1.083       .  S
C151        C152   1.408   1_545  A
C151       Br159   1.918       .  S
C152        C153   1.403       .  A
C153        C154   1.397       .  A
C153        H156   1.084       .  S
C154       Br160   1.920       .  S
C161        C162   1.408       .  A
C161        C166   1.404   1_565  A
C162        C163   1.402       .  A
C162       Br178   1.917       .  S
C163        C164   1.406   1_565  A
C163        H167   1.083       .  S
C164        C165   1.410       .  A
C164        C168   1.486       .  S
C165        C166   1.398       .  A
C165       Br177   1.920       .  S
C166        H169   1.084       .  S
C168        C170   1.403       .  A
C168        C174   1.410   1_545  A
C170        C171   1.402       .  A
C170        H175   1.083       .  S
C171        C172   1.415       .  A
C171       Br179   1.920       .  S
C172        C173   1.405   1_545  A
C173        C174   1.399       .  A
C173        H176   1.083       .  S
C174       Br180   1.920       .  S
C181        C182   1.415   1_655  A
C181        C186   1.404       .  A
C182        C183   1.401       .  A
C182       Br198   1.919       .  S
C183        C184   1.401   1_455  A
C183        H187   1.083       .  S
C184        C185   1.409       .  A
C184        C188   1.479       .  S
C185        C186   1.399       .  A
C185       Br197   1.920       .  S
C186        H189   1.083       .  S
C188        C190   1.402   1_655  A
C188        C194   1.409       .  A
C190        C191   1.398       .  A
C190        H195   1.084       .  S
C191        C192   1.409   1_455  A
C191       Br199   1.919       .  S
C192        C193   1.403       .  A
C193        C194   1.401       .  A
C193        H196   1.083       .  S
C194       Br200   1.918       .  S
C201        C202   1.410       .  A
C201        C206   1.404   1_655  A
C202        C203   1.397       .  A
C202       Br218   1.919       .  S
C203        C204   1.401   1_655  A
C203        H207   1.084       .  S
C204        C205   1.409       .  A
C204        C208   1.480       .  S
C205        C206   1.403       .  A
C205       Br217   1.918       .  S
C206        H209   1.083       .  S
C208        C210   1.401   1_455  A
C208        C214   1.409       .  A
C210        C211   1.401       .  A
C210        H215   1.083       .  S
C211        C212   1.414   1_655  A
C211       Br219   1.920       .  S
C212        C213   1.404       .  A
C213        C214   1.399       .  A
C213        H216   1.083       .  S
C214       Br220   1.920       .  S
C221        C222   1.412       .  A
C221        C226   1.408       .  A
C222        C223   1.398       .  A
C222       Br238   1.920       .  S
C223        C224   1.401       .  A
C223        H227   1.084       .  S
C224        C225   1.406       .  A
C224        C228   1.478       .  S
C225        C226   1.401       .  A
C225       Br237   1.918   1_455  S
C226        H229   1.083   1_455  S
C228        C230   1.403       .  A
C228        C234   1.408   1_455  A
C230        C231   1.400       .  A
C230        H235   1.083       .  S
C231        C232   1.408       .  A
C231       Br239   1.918       .  S
C232        C233   1.403   1_455  A
C233        C234   1.398       .  A
C233        H236   1.084       .  S
C234       Br240   1.919       .  S
C241        C242   1.413       .  A
C241        C246   1.408       .  A
C242        C243   1.398       .  A
C242       Br258   1.920       .  S
C243        C244   1.401       .  A
C243        H247   1.084       .  S
C244        C245   1.405       .  A
C244        C248   1.478       .  S
C245        C246   1.401       .  A
C245       Br257   1.918   1_655  S
C246        H249   1.083   1_655  S
C248        C250   1.403       .  A
C248        C254   1.409   1_655  A
C250        C251   1.399       .  A
C250        H255   1.084       .  S
C251        C252   1.408       .  A
C251       Br259   1.918       .  S
C252        C253   1.402   1_655  A
C253        C254   1.398       .  A
C253        H256   1.084       .  S
C254       Br260   1.919       .  S
C261        C262   1.410   1_565  A
C261        C266   1.404       .  A
C262        C263   1.398       .  A
C262       Br278   1.920   1_554  S
C263        C264   1.403   1_545  A
C263        H267   1.083       .  S
C264        C265   1.412       .  A
C264        C268   1.487       .  S
C265        C266   1.404       .  A
C265       Br277   1.918       .  S
C266        H269   1.083       .  S
C268        C270   1.404       .  A
C268        C274   1.409   1_565  A
C270        C271   1.401       .  A
C270        H275   1.084       .  S
C271        C272   1.413       .  A
C271       Br279   1.920       .  S
C272        C273   1.406   1_565  A
C273        C274   1.402       .  A
C273        H276   1.083       .  S
C274       Br280   1.919       .  S
C281        C282   1.407   1_565  A
C281        C286   1.403       .  A
C282        C283   1.400       .  A
C282       Br298   1.917       .  S
C283        C284   1.404   1_545  A
C283        H287   1.083       .  S
C284        C285   1.410       .  A
C284        C288   1.482       .  S
C285        C286   1.399       .  A
C285       Br297   1.920       .  S
C286        H289   1.084       .  S
C288        C290   1.401       .  A
C288        C294   1.408   1_565  A
C290        C291   1.401       .  A
C290        H295   1.084       .  S
C291        C292   1.417       .  A
C291       Br299   1.919       .  S
C292        C293   1.406   1_565  A
C293        C294   1.398       .  A
C293        H296   1.083       .  S
C294       Br300   1.920       .  S
