geometry optimzed in LAMMPS
_audit_creation_date              2020-12-01 
_audit_creation_method            'lammps2cif' 
_symmetry_space_group_name_H-M    'P1' 
_symmetry_Int_Tables_number       1 
_symmetry_cell_setting            triclinic 
loop_ 
_symmetry_equiv_pos_as_xyz 
  x,y,z 
_cell_length_a                    28.5071237 
_cell_length_b                    28.505999719667493 
_cell_length_c                    34.74073264634851 
_cell_angle_alpha                 89.919588213155 
_cell_angle_beta                  90.10972583385242 
_cell_angle_gamma                 90.02689127066647 
loop_ 
_atom_site_label 
_atom_site_type_symbol 
_atom_site_fract_x 
_atom_site_fract_y 
_atom_site_fract_z 
_atom_site_charge 
C1          C  0.24950321  0.49064139  0.58363481     0.06600
C2          C  0.29199130  0.49011174  0.60402017    -0.09500
C3          C  0.29196086  0.00372451  0.64539706     0.04100
C4          C  0.24938299  0.00288695  0.66545699    -0.08100
C5          C  0.20681634  0.00305117  0.64522846     0.06600
C6          C  0.20688700  0.49041971  0.60371845    -0.07500
H7          H  0.32497668  0.49035834  0.58853505     0.12200
H8          H  0.24937614  0.00178810  0.69666831     0.09700
H9          H  0.17398893  0.49088183  0.58800239     0.09600
C10         C  0.24954292  0.49170402  0.39033653     0.06600
C11         C  0.29182316  0.49198799  0.36974946    -0.09500
C12         C  0.29125647  0.49209549  0.32936587     0.04100
C13         C  0.24841204  0.49194010  0.30959197    -0.08100
C14         C  0.20616531  0.49169737  0.33008151     0.06600
C15         C  0.20673048  0.49153635  0.37042719    -0.07500
H16         H  0.32499427  0.49216835  0.38506995     0.12200
H17         H  0.24794658  0.49211492  0.27836767     0.09700
H18         H  0.17398754  0.49140992  0.38625920     0.09600
In19       In  0.49843120  0.49520127  0.23633805     1.36900
C20         C  0.41556382  0.49332832  0.27136556     0.81100
O21         O  0.99056431  0.07396764  0.23803167    -0.57400
O22         O  0.49081315  0.03956808  0.18492721    -0.48300
C23         C  0.08078336  0.49362199  0.27349462     0.73700
O24         O  0.04259992  0.48925164  0.29126495    -0.43200
C25         C  0.49824985  0.41257674  0.20108935     0.78400
O26         O  0.45371289  0.48853238  0.28915387    -0.55000
O27         O  0.49704798  0.45084295  0.18305422    -0.45100
O28         O  0.41937473  0.49882386  0.23555125    -0.51400
C29         C  0.49525761  0.07788997  0.20250900     0.88600
O30         O  0.07708449  0.49898197  0.23763488    -0.53300
O31         O  0.99356436  0.41651560  0.23841284    -0.56600
In32       In  0.99982332  0.49621588  0.73781379     1.36900
C33         C  0.49564872  0.07867679  0.77281306     0.81100
O34         O  0.07853496  0.50321595  0.73646973    -0.57400
O35         O  0.04371133  0.00471032  0.68552228    -0.48300
C36         C  0.00167836  0.41393907  0.77404607     0.73700
O37         O  0.49027073  0.45259057  0.79032757    -0.43200
C38         C  0.41744055  0.49209365  0.70129805     0.78400
O39         O  0.01064065  0.04056989  0.79171448    -0.55000
O40         O  0.45533805  0.48149396  0.68493478    -0.45100
O41         O  0.50263292  0.07515922  0.73716387    -0.51400
C42         C  0.08187869  0.49210986  0.70153561     0.88600
O43         O  0.99333393  0.41745130  0.73856854    -0.53300
O44         O  0.42153078  0.50479923  0.73581356    -0.56600
C45         C  0.49349947  0.24475883  0.08382881     0.06600
C46         C  0.49490226  0.28739415  0.10385994    -0.09500
C47         C  0.49601302  0.28759148  0.14420583     0.04100
C48         C  0.49570772  0.24515612  0.16455025    -0.08100
C49         C  0.49430447  0.20250443  0.14463721     0.06600
C50         C  0.49324180  0.20230689  0.10427358    -0.07500
H51         H  0.49507208  0.32027528  0.08812728     0.12200
H52         H  0.49653056  0.24532577  0.19576924     0.09700
H53         H  0.49218091  0.16928048  0.08885554     0.09600
C54         C  0.49029245  0.24573109  0.89060277     0.06600
C55         C  0.49143438  0.28846318  0.87060369    -0.09500
C56         C  0.00468519  0.28907956  0.83170504     0.04100
C57         C  0.00437139  0.24636878  0.81176484    -0.08100
C58         C  0.00518040  0.20386428  0.83208853     0.06600
C59         C  0.49001378  0.20337775  0.87014942    -0.07500
H60         H  0.49183835  0.32125441  0.88637940     0.12200
H61         H  0.00339800  0.24620835  0.78055377     0.09700
H62         H  0.48938914  0.17028885  0.88557514     0.09600
C63         C  0.49006069  0.24533559  0.93211960    -0.15000
C64         C  0.49038020  0.24503935  0.96686841     0.09000
C65         C  0.49125224  0.24475147  0.00757454     0.10900
C66         C  0.49223962  0.24462518  0.04231782    -0.15900
C67         C  0.49328875  0.12312194  0.79209393    -0.09800
C68         C  0.49180113  0.16006100  0.80894094    -0.11400
C69         C  0.00269058  0.36962851  0.79373730    -0.09800
C70         C  0.00361943  0.33276062  0.81080897    -0.11400
C71         C  0.49791535  0.36816452  0.18177520    -0.09800
C72         C  0.49722986  0.33134626  0.16478036    -0.11400
C73         C  0.49407265  0.15894639  0.16566301    -0.09800
C74         C  0.49427635  0.12224200  0.18294889    -0.11400
C75         C  0.33460661  0.49247093  0.30815447    -0.09800
C76         C  0.37115337  0.49280223  0.29073725    -0.11400
C77         C  0.16220918  0.49202520  0.30967780    -0.09800
C78         C  0.12523093  0.49265507  0.29283191    -0.11400
C79         C  0.16285373  0.48991658  0.66466028    -0.09800
C80         C  0.12600621  0.49058424  0.68168837    -0.11400
C81         C  0.33577613  0.48946116  0.66516599    -0.09800
C82         C  0.37289669  0.49023866  0.68192261    -0.11400
C83         C  0.24965681  0.49140200  0.54210626    -0.15000
C84         C  0.24982039  0.49176260  0.50734967     0.09000
C85         C  0.24998567  0.49183773  0.46662637     0.10900
C86         C  0.24998666  0.49176517  0.43186828    -0.15900
C87         C  0.24945720  0.00508148  0.58475135     0.06600
C88         C  0.29197124  0.00490530  0.60506542    -0.09500
C89         C  0.29194895  0.48940401  0.64437858     0.04100
C90         C  0.24927755  0.48920624  0.66437926    -0.08100
C91         C  0.20671705  0.48970771  0.64408340     0.06600
C92         C  0.20687982  0.00419530  0.60487296    -0.07500
H93         H  0.32493613  0.00534053  0.58954818     0.12200
H94         H  0.24919019  0.48881969  0.69559933     0.09700
H95         H  0.17395118  0.00412859  0.58919914     0.09600
C96         C  0.24941810  0.00484765  0.39162605     0.06600
C97         C  0.29165284  0.00360565  0.37105833    -0.09500
C98         C  0.29107586  0.00275476  0.33070635     0.04100
C99         C  0.24820879  0.00321854  0.31092081    -0.08100
C100        C  0.20597428  0.00444417  0.33145031     0.06600
C101        C  0.20660236  0.00535394  0.37177016    -0.07500
H102        H  0.32481737  0.00306907  0.38638574     0.12200
H103        H  0.24771051  0.00230197  0.27970838     0.09700
H104        H  0.17389050  0.00608736  0.38763547     0.09600
In105      In  0.49838491  0.99542107  0.23811231     1.36900
C106        C  0.41579640  0.99785808  0.27346548     0.81100
O107        O  0.00405220  0.57403033  0.23867313    -0.57400
O108        O  0.49957439  0.53991011  0.18307927    -0.48300
C109        C  0.08047595  0.99981411  0.27518838     0.73700
O110        O  0.04223787  0.00800705  0.29194352    -0.43200
C111        C  0.50112331  0.91331684  0.20198848     0.78400
O112        O  0.45368462  0.00738055  0.29037042    -0.55000
O113        O  0.50563246  0.95182488  0.18460806    -0.45100
O114        O  0.41983163  0.98702118  0.23852859    -0.51400
C115        C  0.49893211  0.57809333  0.20116883     0.88600
O116        O  0.07701597  0.98925498  0.24013993    -0.53300
O117        O  0.00570651  0.91699145  0.23778718    -0.56600
In118      In  0.99993460  0.99629424  0.73883857     1.36900
C119        C  0.50333371  0.57823249  0.77332883     0.81100
O120        O  0.07886539  0.99148318  0.73833114    -0.57400
O121        O  0.04359918  0.48280006  0.68516623    -0.48300
C122        C  0.99681876  0.91359634  0.77465127     0.73700
O123        O  0.50957798  0.95202754  0.79032835    -0.43200
C124        C  0.41730941  0.99898752  0.70202859     0.78400
O125        O  0.99136564  0.53989338  0.79121232    -0.55000
O126        O  0.45525789  0.00718369  0.68482363    -0.45100
O127        O  0.49519674  0.57503262  0.73779866    -0.51400
C128        C  0.08212848  0.99870742  0.70268815     0.88600
O129        O  0.00471971  0.91727695  0.73914399    -0.53300
O130        O  0.42135204  0.98904181  0.73719274    -0.56600
C131        C  0.50291767  0.74617252  0.08375184     0.06600
C132        C  0.50272663  0.78866987  0.10401984    -0.09500
C133        C  0.50171142  0.78859521  0.14437359     0.04100
C134        C  0.50074110  0.74595269  0.16446772    -0.08100
C135        C  0.50085688  0.70342715  0.14429269     0.06600
C136        C  0.50198946  0.70356459  0.10394254    -0.07500
H137        H  0.50347696  0.82166200  0.08846040     0.12200
H138        H  0.49994775  0.74586166  0.19568264     0.09700
H139        H  0.50217454  0.67065761  0.08832768     0.09600
C140        C  0.50814667  0.74625579  0.89058950     0.06600
C141        C  0.50810920  0.78871612  0.87020241    -0.09500
C142        C  0.99373937  0.78831093  0.83195270     0.04100
C143        C  0.99486052  0.74580216  0.81173758    -0.08100
C144        C  0.99400416  0.70307742  0.83175194     0.06600
C145        C  0.50789426  0.70362802  0.87052924    -0.07500
H146        H  0.50807455  0.82172586  0.88567484     0.12200
H147        H  0.99642546  0.74596924  0.78054540     0.09700
H148        H  0.50770284  0.67074964  0.88626006     0.09600
C149        C  0.50773041  0.74641054  0.93209499    -0.15000
C150        C  0.50687630  0.74643459  0.96683113     0.09000
C151        C  0.50549779  0.74637243  0.00751806     0.10900
C152        C  0.50426247  0.74628607  0.04224951    -0.15900
C153        C  0.50517204  0.62249075  0.79294960    -0.09800
C154        C  0.50648592  0.65950557  0.80970077    -0.11400
C155        C  0.99558062  0.86915546  0.79424045    -0.09800
C156        C  0.99470678  0.83222747  0.81128780    -0.11400
C157        C  0.50175134  0.86909718  0.18225724    -0.09800
C158        C  0.50179449  0.83229588  0.16515818    -0.11400
C159        C  0.49993532  0.65962440  0.16499070    -0.09800
C160        C  0.49933795  0.62267188  0.18192521    -0.11400
C161        C  0.33450885  0.00089358  0.30967712    -0.09800
C162        C  0.37132988  0.99934551  0.29270681    -0.11400
C163        C  0.16191198  0.00367652  0.31122405    -0.09800
C164        C  0.12478253  0.00219260  0.29464962    -0.11400
C165        C  0.16308087  0.00147945  0.66588333    -0.09800
C166        C  0.12631967  0.00009680  0.68297564    -0.11400
C167        C  0.33570889  0.00247348  0.66611887    -0.09800
C168        C  0.37273804  0.00091304  0.68287712    -0.11400
C169        C  0.24957697  0.00542566  0.54325705    -0.15000
C170        C  0.24978846  0.00534488  0.50852384     0.09000
C171        C  0.24996855  0.00514410  0.46784216     0.10900
C172        C  0.24991954  0.00504798  0.43311084    -0.15900
C173        C  0.74945848  0.50418680  0.58374711     0.06600
C174        C  0.79225389  0.50417122  0.60370849    -0.09500
C175        C  0.79269326  0.99128039  0.64507109     0.04100
C176        C  0.75028430  0.99140519  0.66538696    -0.08100
C177        C  0.70754629  0.99105987  0.64541787     0.06600
C178        C  0.70715804  0.50442534  0.60425022    -0.07500
H179        H  0.82501450  0.50388363  0.58790714     0.12200
H180        H  0.75053851  0.99195246  0.69660558     0.09700
H181        H  0.67402662  0.50431432  0.58886445     0.09600
C182        C  0.74800423  0.50012820  0.39054052     0.06600
C183        C  0.79066096  0.50003242  0.37054733    -0.09500
C184        C  0.79091418  0.49899204  0.33021325     0.04100
C185        C  0.74850063  0.49818344  0.30982318    -0.08100
C186        C  0.70581001  0.49830159  0.32969825     0.06600
C187        C  0.70556782  0.49922617  0.37006600    -0.07500
H188        H  0.82352567  0.50064261  0.38630806     0.12200
H189        H  0.74871725  0.49739234  0.27860616     0.09700
H190        H  0.67252279  0.49927898  0.38546327     0.09600
In191      In  0.99831059  0.49528487  0.23811353     1.36900
C192        C  0.91598564  0.49649156  0.27356331     0.81100
O193        O  0.50105185  0.07437081  0.23833450    -0.57400
O194        O  0.01175404  0.03957437  0.18668651    -0.48300
C195        C  0.58119049  0.49671032  0.27175551     0.73700
O196        O  0.54302127  0.50158312  0.28938603    -0.43200
C197        C  0.00258840  0.41266821  0.20310996     0.78400
O198        O  0.95422494  0.50147596  0.29124077    -0.55000
O199        O  0.00925902  0.45078199  0.18562784    -0.45100
O200        O  0.91954999  0.49058686  0.23778260    -0.51400
C201        C  0.00204000  0.07762141  0.20317958     0.88600
O202        O  0.57743270  0.49130540  0.23592460    -0.53300
O203        O  0.49960664  0.41620648  0.23717853    -0.56600
In204      In  0.50004551  0.49628296  0.73705583     1.36900
C205        C  0.00264448  0.07879185  0.77479592     0.81100
O206        O  0.57856172  0.48783780  0.73612449    -0.57400
O207        O  0.54461925  0.98528525  0.68497965    -0.48300
C208        C  0.49698441  0.41420617  0.77332240     0.73700
O209        O  0.00906864  0.45219328  0.79105049    -0.43200
C210        C  0.91770683  0.50076004  0.70156235     0.78400
O211        O  0.49104990  0.04031827  0.79040416    -0.55000
O212        O  0.95598856  0.50958315  0.68511276    -0.45100
O213        O  0.99347833  0.07519718  0.73946716    -0.51400
C214        C  0.58259496  0.50071352  0.70162877     0.88600
O215        O  0.50536873  0.41754118  0.73785296    -0.53300
O216        O  0.92107376  0.48984591  0.73657913    -0.56600
C217        C  0.00548919  0.24568168  0.08561162     0.06600
C218        C  0.00614268  0.28802332  0.10604240    -0.09500
C219        C  0.00639270  0.28767326  0.14638118     0.04100
C220        C  0.00610600  0.24494826  0.16632919    -0.08100
C221        C  0.00537245  0.20257523  0.14597383     0.06600
C222        C  0.00502619  0.20294789  0.10561875    -0.07500
H223        H  0.00631737  0.32111919  0.09061569     0.12200
H224        H  0.00618554  0.24467809  0.19755362     0.09700
H225        H  0.00440837  0.17014451  0.08986589     0.09600
C226        C  0.00642257  0.24682868  0.89247200     0.06600
C227        C  0.00572715  0.28926652  0.87205064    -0.09500
C228        C  0.49226188  0.28888816  0.83025161     0.04100
C229        C  0.49199840  0.24647822  0.80987622    -0.08100
C230        C  0.49095754  0.20369930  0.82980039     0.06600
C231        C  0.00627627  0.20414721  0.87244951    -0.07500
H232        H  0.00576357  0.32230004  0.88749053     0.12200
H233        H  0.49287577  0.24676081  0.77866419     0.09700
H234        H  0.00672814  0.17129248  0.88821161     0.09600
C235        C  0.00655564  0.24705849  0.93397576    -0.15000
C236        C  0.00621031  0.24699897  0.96871187     0.09000
C237        C  0.00567116  0.24659859  0.00939411     0.10900
C238        C  0.00541103  0.24613159  0.04412437    -0.15900
C239        C  0.00370837  0.12310334  0.79447064    -0.09800
C240        C  0.00447100  0.15996573  0.81151979    -0.11400
C241        C  0.49523800  0.36989903  0.79298336    -0.09800
C242        C  0.49380274  0.33287458  0.80980349    -0.11400
C243        C  0.00484549  0.36815361  0.18405152    -0.09800
C244        C  0.00606533  0.33122974  0.16724187    -0.11400
C245        C  0.00461279  0.15871464  0.16651538    -0.09800
C246        C  0.00363624  0.12185686  0.18352969    -0.11400
C247        C  0.83472805  0.49836440  0.30974332    -0.09800
C248        C  0.87162506  0.49751873  0.29289839    -0.11400
C249        C  0.66227081  0.49757474  0.30862228    -0.09800
C250        C  0.62559661  0.49714961  0.29127394    -0.11400
C251        C  0.66401063  0.50392508  0.66553015    -0.09800
C252        C  0.62706844  0.50279799  0.68237596    -0.11400
C253        C  0.83671336  0.50363731  0.66458338    -0.09800
C254        C  0.87355400  0.50262804  0.68169114    -0.11400
C255        C  0.74892254  0.50347376  0.54223512    -0.15000
C256        C  0.74847078  0.50270832  0.50749370     0.09000
C257        C  0.74804956  0.50180750  0.46679294     0.10900
C258        C  0.74785756  0.50105535  0.43205009    -0.15900
C259        C  0.74954349  0.99036832  0.58467146     0.06600
C260        C  0.79229683  0.99073336  0.60470206    -0.09500
C261        C  0.79275303  0.50424793  0.64407449     0.04100
C262        C  0.75039774  0.50436795  0.66448383    -0.08100
C263        C  0.70758343  0.50447497  0.64460340     0.06600
C264        C  0.70720028  0.99050632  0.60508373    -0.07500
H265        H  0.82509496  0.99074015  0.58895441     0.12200
H266        H  0.75075447  0.50419159  0.69570614     0.09700
H267        H  0.67410278  0.99034663  0.58964279     0.09600
C268        C  0.74839549  0.98877502  0.39154714     0.06600
C269        C  0.79100656  0.98767828  0.37152703    -0.09500
C270        C  0.79120230  0.98752819  0.33118645     0.04100
C271        C  0.74874171  0.98834861  0.31082787    -0.08100
C272        C  0.70609791  0.98942708  0.33078016     0.06600
C273        C  0.70594858  0.98961059  0.37113382    -0.07500
H274        H  0.82388697  0.98723306  0.38727035     0.12200
H275        H  0.74889026  0.98843180  0.27960438     0.09700
H276        H  0.67294895  0.99056564  0.38657870     0.09600
In277      In  0.99850602  0.99549112  0.23910131     1.36900
C278        C  0.91639542  0.99091773  0.27473222     0.81100
O279        O  0.49800932  0.57422833  0.23725695    -0.57400
O280        O  0.98656661  0.54051712  0.18600372    -0.48300
C281        C  0.58108064  0.99302218  0.27353670     0.73700
O282        O  0.54334001  0.98271424  0.29025807    -0.43200
C283        C  0.99470860  0.91372804  0.20278767     0.78400
O284        O  0.95453760  0.98198767  0.29152680    -0.55000
O285        O  0.98578090  0.95202501  0.18626695    -0.45100
O286        O  0.92001372  0.00228617  0.23984244    -0.51400
C287        C  0.99413016  0.57837442  0.20353961     0.88600
O288        O  0.57687016  0.00446418  0.23870203    -0.53300
O289        O  0.49560330  0.91649427  0.23783500    -0.56600
In290      In  0.49992534  0.99625539  0.73736782     1.36900
C291        C  0.99762729  0.57833369  0.77411181     0.81100
O292        O  0.57847595  0.00389034  0.73729536    -0.57400
O293        O  0.54469095  0.51131087  0.68514081    -0.48300
C294        C  0.50367725  0.91378858  0.77290039     0.73700
O295        O  0.99029066  0.95185134  0.79183227    -0.43200
C296        C  0.91765864  0.99412801  0.70263544     0.78400
O297        O  0.50966626  0.53976630  0.79041903    -0.55000
O298        O  0.95602043  0.98817265  0.68548854    -0.45100
O299        O  0.00503835  0.57507361  0.73850716    -0.51400
C300        C  0.58252594  0.99392594  0.70218276     0.88600
O301        O  0.49572934  0.91744682  0.73736780    -0.53300
O302        O  0.92103207  0.00115746  0.73830674    -0.56600
C303        C  0.98971208  0.74538996  0.08576182     0.06600
C304        C  0.99019014  0.78818441  0.10558968    -0.09500
C305        C  0.99014740  0.78871771  0.14594367     0.04100
C306        C  0.98968129  0.74641595  0.16651394    -0.08100
C307        C  0.98940980  0.70360015  0.14677967     0.06600
C308        C  0.98933313  0.70311015  0.10641834    -0.07500
H309        H  0.99068894  0.82093721  0.08968596     0.12200
H310        H  0.98990084  0.74681343  0.19773728     0.09700
H311        H  0.98921616  0.66996123  0.09115333     0.09600
C312        C  0.99113603  0.74533502  0.89243286     0.06600
C313        C  0.99186202  0.78802157  0.87230371    -0.09500
C314        C  0.50777509  0.78859118  0.82985074     0.04100
C315        C  0.50753295  0.74592112  0.80985323    -0.08100
C316        C  0.50753890  0.70340811  0.83017638     0.06600
C317        C  0.99210689  0.70289654  0.87208765    -0.07500
H318        H  0.99116469  0.82087700  0.88797703     0.12200
H319        H  0.50705762  0.74580002  0.77863236     0.09700
H320        H  0.99160566  0.66985691  0.88758719     0.09600
C321        C  0.99008163  0.74506386  0.93397251    -0.15000
C322        C  0.98976743  0.74485036  0.96873733     0.09000
C323        C  0.98976105  0.74475401  0.00947056     0.10900
C324        C  0.98978343  0.74489840  0.04423138    -0.15900
C325        C  0.99640977  0.62257644  0.79383944    -0.09800
C326        C  0.99530447  0.65938940  0.81092603    -0.11400
C327        C  0.50566376  0.86931805  0.79222770    -0.09800
C328        C  0.50693148  0.83231572  0.80905393    -0.11400
C329        C  0.99263828  0.86959939  0.18308689    -0.09800
C330        C  0.99123310  0.83268484  0.16624579    -0.11400
C331        C  0.99022882  0.66009994  0.16786821    -0.09800
C332        C  0.99176891  0.62312597  0.18470698    -0.11400
C333        C  0.83504404  0.98758478  0.31073442    -0.09800
C334        C  0.87205578  0.98865588  0.29405477    -0.11400
C335        C  0.66246070  0.99074146  0.30988511    -0.09800
C336        C  0.62556619  0.99185553  0.29289032    -0.11400
C337        C  0.66396866  0.99174604  0.66624713    -0.09800
C338        C  0.62703420  0.99264490  0.68305212    -0.11400
C339        C  0.83658966  0.99211874  0.66568365    -0.09800
C340        C  0.87340701  0.99301914  0.68284354    -0.11400
C341        C  0.74906707  0.99017450  0.54317660    -0.15000
C342        C  0.74862779  0.99007875  0.50844339     0.09000
C343        C  0.74831985  0.98982474  0.46776117     0.10900
C344        C  0.74826073  0.98938968  0.43303140    -0.15900
loop_ 
_geom_bond_atom_site_label_1 
_geom_bond_atom_site_label_2 
_geom_bond_distance 
_geom_bond_site_symmetry_2 
_ccdc_geom_bond_type 
C1            C2   1.402       .  A
C1            C6   1.402       .  A
C1           C83   1.443       .  S
C2           C89   1.402       .  A
C2            H7   1.084       .  S
C3            C4   1.401       .  A
C3           C88   1.402       .  A
C3          C167   1.439       .  S
C4            C5   1.401       .  A
C4            H8   1.085       .  S
C5           C92   1.402       .  A
C5          C165   1.440       .  S
C6           C91   1.402       .  A
C6            H9   1.084       .  S
C10          C11   1.403       .  A
C10          C15   1.402       .  A
C10          C86   1.443       .  S
C11          C12   1.403       .  A
C11          H16   1.084       .  S
C12          C13   1.400       .  A
C12          C75   1.440       .  S
C13          C14   1.400       .  A
C13          H17   1.085       .  S
C14          C15   1.402       .  A
C14          C77   1.439       .  S
C15          H18   1.084       .  S
In19         O26   2.244       .  S
In19         O27   2.244       .  S
In19         O28   2.256       .  S
In19        O279   2.253       .  S
In19        O108   2.246       .  S
In19        O202   2.255       .  S
In19        O196   2.244       .  S
In19        O203   2.252       .  S
C20          C76   1.435       .  S
C20          O26   1.257       .  A
C20          O28   1.259       .  A
O21        In277   2.249   1_545  S
O21         C201   1.259   1_655  A
O22        In105   2.244   1_545  S
O22          C29   1.259       .  A
C23          C78   1.433       .  S
C23          O30   1.259       .  A
C23          O24   1.258       .  A
O24        In191   2.241   1_455  S
C25          C71   1.434       .  S
C25          O27   1.258       .  A
C25         O203   1.259       .  A
C29          C74   1.435       .  S
C29         O193   1.259       .  A
O30        In191   2.248   1_455  S
O31        In191   2.249       .  S
O31         C197   1.259   1_655  A
In32         O34   2.253   1_655  S
In32         O43   2.253       .  S
In32        O121   2.249   1_655  S
In32        O209   2.249   1_655  S
In32        O125   2.249       .  S
In32        O212   2.247       .  S
In32        O299   2.253   1_655  S
In32        O216   2.253       .  S
C33          C67   1.436       .  S
C33          O41   1.259       .  A
C33         O211   1.259       .  A
O34          C42   1.258       .  A
O35        In118   2.248   1_445  S
O35         C128   1.258   1_545  A
C36          C69   1.436       .  S
C36          O43   1.259   1_455  A
C36         O209   1.258       .  A
O37        In204   2.247       .  S
O37         C208   1.259       .  A
C38          C82   1.437       .  S
C38          O40   1.259       .  A
C38          O44   1.258       .  A
O39        In118   2.250   1_445  S
O39         C205   1.258       .  A
O40        In204   2.252       .  S
O41        In290   2.251   1_545  S
C42          C80   1.436       .  S
C42         O121   1.258       .  A
O44        In204   2.252       .  S
C45          C46   1.402       .  A
C45          C50   1.402       .  A
C45          C66   1.443       .  S
C46          C47   1.402       .  A
C46          H51   1.084       .  S
C47          C48   1.400       .  A
C47          C72   1.439       .  S
C48          C49   1.400       .  A
C48          H52   1.085       .  S
C49          C50   1.403       .  A
C49          C73   1.440       .  S
C50          H53   1.084       .  S
C54          C55   1.402       .  A
C54          C59   1.402       .  A
C54          C63   1.442       .  S
C55         C228   1.402       .  A
C55          H60   1.084       .  S
C56          C57   1.402       .  A
C56         C227   1.402       .  A
C56          C70   1.441       .  S
C57          C58   1.402       .  A
C57          H61   1.085       .  S
C58         C231   1.402       .  A
C58         C240   1.442       .  S
C59         C230   1.402       .  A
C59          H62   1.084       .  S
C63          C64   1.207       .  T
C64          C65   1.414   1_556  S
C65          C66   1.207       .  T
C67          C68   1.206       .  T
C68         C230   1.441       .  S
C69          C70   1.206       .  T
C71          C72   1.205       .  T
C73          C74   1.206       .  T
C75          C76   1.206       .  T
C77          C78   1.205       .  T
C79          C91   1.442       .  S
C79          C80   1.207       .  T
C81          C89   1.442       .  S
C81          C82   1.207       .  T
C83          C84   1.208       .  T
C84          C85   1.415       .  S
C85          C86   1.208       .  T
C87          C88   1.401       .  A
C87          C92   1.402       .  A
C87         C169   1.442       .  S
C88          H93   1.084       .  S
C89          C90   1.402       .  A
C90          C91   1.402       .  A
C90          H94   1.085       .  S
C92          H95   1.084       .  S
C96          C97   1.402       .  A
C96         C101   1.401       .  A
C96         C172   1.441       .  S
C97          C98   1.402       .  A
C97         H102   1.084       .  S
C98          C99   1.401       .  A
C98         C161   1.440       .  S
C99         C100   1.401       .  A
C99         H103   1.085       .  S
C100        C101   1.401       .  A
C100        C163   1.438       .  S
C101        H104   1.084       .  S
In105       O193   2.252   1_565  S
In105       O288   2.252   1_565  S
In105       O282   2.246       .  S
In105       O112   2.247   1_565  S
In105       O113   2.247       .  S
In105       O114   2.252       .  S
In105       O289   2.251       .  S
C106        C162   1.435       .  S
C106        O112   1.258   1_565  A
C106        O114   1.258       .  A
O107       In191   2.251   1_455  S
O107        C287   1.258   1_455  A
O108        C115   1.258       .  A
C109        C164   1.433   1_565  S
C109        O116   1.258       .  A
C109        O110   1.259   1_565  A
O110       In277   2.246   1_445  S
C111        C157   1.436       .  S
C111        O113   1.259       .  A
C111        O289   1.259       .  A
C115        C160   1.435       .  S
C115        O279   1.259       .  A
O116       In277   2.245   1_455  S
O117       In277   2.248   1_455  S
O117        C283   1.259   1_455  A
In118       O120   2.254   1_655  S
In118       O129   2.257   1_655  S
In118       O295   2.251       .  S
In118       O298   2.247       .  S
In118       O213   2.257   1_565  S
In118       O302   2.254   1_565  S
C119        C153   1.436       .  S
C119        O297   1.259       .  A
C119        O127   1.259       .  A
O120        C128   1.259       .  A
C122        C155   1.438       .  S
C122        O129   1.259   1_655  A
C122        O295   1.258       .  A
O123       In290   2.246       .  S
O123        C294   1.259       .  A
C124        C168   1.434   1_565  S
C124        O126   1.259   1_565  A
C124        O130   1.259       .  A
O125        C291   1.259       .  A
O126       In290   2.245   1_545  S
O127       In204   2.249       .  S
C128        C166   1.436   1_565  S
O130       In290   2.249       .  S
C131        C132   1.402       .  A
C131        C136   1.402       .  A
C131        C152   1.442       .  S
C132        C133   1.402       .  A
C132        H137   1.084       .  S
C133        C134   1.401       .  A
C133        C158   1.441       .  S
C134        C135   1.401       .  A
C134        H138   1.085       .  S
C135        C136   1.402       .  A
C135        C159   1.440       .  S
C136        H139   1.084       .  S
C140        C141   1.402       .  A
C140        C145   1.402       .  A
C140        C149   1.442       .  S
C141        C314   1.402       .  A
C141        H146   1.084       .  S
C142        C313   1.403       .  A
C142        C143   1.402       .  A
C142        C156   1.443       .  S
C143        C144   1.402       .  A
C143        H147   1.085       .  S
C144        C317   1.402       .  A
C144        C326   1.442       .  S
C145        C316   1.402       .  A
C145        H148   1.084       .  S
C149        C150   1.207       .  T
C150        C151   1.414   1_556  S
C151        C152   1.207       .  T
C153        C154   1.206       .  T
C154        C316   1.441       .  S
C155        C156   1.207       .  T
C157        C158   1.206       .  T
C159        C160   1.206       .  T
C161        C162   1.206   1_545  T
C163        C164   1.205       .  T
C165        C166   1.206       .  T
C167        C168   1.205       .  T
C169        C170   1.207       .  T
C170        C171   1.413       .  S
C171        C172   1.207       .  T
C173        C174   1.402       .  A
C173        C178   1.402       .  A
C173        C255   1.442       .  S
C174        C261   1.402       .  A
C174        H179   1.084       .  S
C175        C260   1.403       .  A
C175        C176   1.401       .  A
C175        C339   1.441       .  S
C176        C177   1.401       .  A
C176        H180   1.085       .  S
C177        C264   1.401       .  A
C177        C337   1.439       .  S
C178        C263   1.402       .  A
C178        H181   1.084       .  S
C182        C183   1.402       .  A
C182        C187   1.402       .  A
C182        C258   1.442       .  S
C183        C184   1.402       .  A
C183        H188   1.084       .  S
C184        C185   1.400       .  A
C184        C247   1.439       .  S
C185        C186   1.400       .  A
C185        H189   1.085       .  S
C186        C187   1.403       .  A
C186        C249   1.440       .  S
C187        H190   1.084       .  S
In191       O280   2.246       .  S
In191       O198   2.242       .  S
In191       O199   2.245   1_655  S
In191       O200   2.249       .  S
C192        C248   1.433       .  S
C192        O198   1.258       .  A
C192        O200   1.259       .  A
O194       In277   2.244   1_445  S
O194        C201   1.259       .  A
C195        C250   1.435       .  S
C195        O202   1.259       .  A
C195        O196   1.258       .  A
C197        C243   1.434       .  S
C197        O199   1.259       .  A
C201        C246   1.434       .  S
In204       O206   2.252       .  S
In204       O293   2.250       .  S
In204       O215   2.250       .  S
In204       O297   2.248       .  S
C205        C239   1.437       .  S
C205        O213   1.259   1_455  A
O206        C214   1.258       .  A
O207       In290   2.246       .  S
O207        C300   1.258       .  A
C208        C241   1.436       .  S
C208        O215   1.259       .  A
C210        C254   1.435       .  S
C210        O212   1.258       .  A
C210        O216   1.259       .  A
O211       In290   2.246   1_545  S
C214        C252   1.436       .  S
C214        O293   1.259       .  A
C217        C218   1.401       .  A
C217        C222   1.402       .  A
C217        C238   1.441       .  S
C218        C219   1.401       .  A
C218        H223   1.084       .  S
C219        C220   1.400       .  A
C219        C244   1.439       .  S
C220        C221   1.401       .  A
C220        H224   1.085       .  S
C221        C222   1.402       .  A
C221        C245   1.439       .  S
C222        H225   1.084       .  S
C226        C227   1.402       .  A
C226        C231   1.402       .  A
C226        C235   1.442       .  S
C227        H232   1.084       .  S
C228        C229   1.402       .  A
C228        C242   1.441       .  S
C229        C230   1.402       .  A
C229        H233   1.085       .  S
C231        H234   1.084       .  S
C235        C236   1.207       .  T
C236        C237   1.413   1_556  S
C237        C238   1.207       .  T
C239        C240   1.207       .  T
C241        C242   1.206       .  T
C243        C244   1.205       .  T
C245        C246   1.205       .  T
C247        C248   1.205       .  T
C249        C250   1.206       .  T
C251        C263   1.441       .  S
C251        C252   1.206       .  T
C253        C261   1.440       .  S
C253        C254   1.206       .  T
C255        C256   1.207       .  T
C256        C257   1.414       .  S
C257        C258   1.207       .  T
C259        C260   1.402       .  A
C259        C264   1.401       .  A
C259        C341   1.442       .  S
C260        H265   1.084       .  S
C261        C262   1.401       .  A
C262        C263   1.401       .  A
C262        H266   1.085       .  S
C264        H267   1.084       .  S
C268        C269   1.401       .  A
C268        C273   1.402       .  A
C268        C344   1.441       .  S
C269        C270   1.401       .  A
C269        H274   1.084       .  S
C270        C271   1.401       .  A
C270        C333   1.439       .  S
C271        C272   1.401       .  A
C271        H275   1.085       .  S
C272        C273   1.402       .  A
C272        C335   1.440       .  S
C273        H276   1.084       .  S
In277       O284   2.246       .  S
In277       O285   2.245       .  S
In277       O286   2.246   1_565  S
C278        C334   1.434       .  S
C278        O284   1.259       .  A
C278        O286   1.259   1_565  A
O280        C287   1.258       .  A
C281        C336   1.435       .  S
C281        O288   1.258   1_565  A
C281        O282   1.258       .  A
C283        C329   1.434       .  S
C283        O285   1.259       .  A
C287        C332   1.434       .  S
In290       O292   2.250   1_565  S
In290       O301   2.250       .  S
C291        C325   1.437       .  S
C291        O299   1.259   1_655  A
O292        C300   1.258   1_545  A
C294        C327   1.435       .  S
C294        O301   1.259       .  A
C296        C340   1.436       .  S
C296        O298   1.258       .  A
C296        O302   1.259   1_565  A
C300        C338   1.434       .  S
C303        C304   1.402       .  A
C303        C308   1.402       .  A
C303        C324   1.443       .  S
C304        C305   1.402       .  A
C304        H309   1.084       .  S
C305        C306   1.401       .  A
C305        C330   1.439       .  S
C306        C307   1.401       .  A
C306        H310   1.085       .  S
C307        C308   1.402       .  A
C307        C331   1.440       .  S
C308        H311   1.084       .  S
C312        C313   1.403       .  A
C312        C317   1.402       .  A
C312        C321   1.443       .  S
C313        H318   1.084       .  S
C314        C315   1.402       .  A
C314        C328   1.440       .  S
C315        C316   1.402       .  A
C315        H319   1.085       .  S
C317        H320   1.084       .  S
C321        C322   1.208       .  T
C322        C323   1.415   1_556  S
C323        C324   1.208       .  T
C325        C326   1.207       .  T
C327        C328   1.206       .  T
C329        C330   1.205       .  T
C331        C332   1.205       .  T
C333        C334   1.205       .  T
C335        C336   1.206       .  T
C337        C338   1.205       .  T
C339        C340   1.206       .  T
C341        C342   1.207       .  T
C342        C343   1.413       .  S
C343        C344   1.207       .  T
