geometry optimzed in LAMMPS
_audit_creation_date              2020-12-01 
_audit_creation_method            'lammps2cif' 
_symmetry_space_group_name_H-M    'P1' 
_symmetry_Int_Tables_number       1 
_symmetry_cell_setting            triclinic 
loop_ 
_symmetry_equiv_pos_as_xyz 
  x,y,z 
_cell_length_a                    29.26410036 
_cell_length_b                    29.257417742306988 
_cell_length_c                    29.263304188484614 
_cell_angle_alpha                 90.00101933871734 
_cell_angle_beta                  89.98315964454116 
_cell_angle_gamma                 90.05920961499318 
loop_ 
_atom_site_label 
_atom_site_type_symbol 
_atom_site_fract_x 
_atom_site_fract_y 
_atom_site_fract_z 
_atom_site_charge 
In1        In  0.14769757  0.49976508  0.14534905     1.36900
C2          C  0.19155388  0.43142017  0.18578734     0.81000
O3          O  0.15458350  0.46322962  0.07805910    -0.57400
O4          O  0.14970463  0.53562946  0.07744377    -0.48300
C5          C  0.05709027  0.49904173  0.15157311     0.73700
O6          O  0.08023003  0.46296885  0.14826457    -0.43200
C7          C  0.18717694  0.56950515  0.18799395     0.78400
O8          O  0.15282133  0.44490047  0.19871207    -0.55000
O9          O  0.20031428  0.55550417  0.14950508    -0.45100
O10         O  0.20827769  0.45299258  0.15250773    -0.51500
C11         C  0.15329130  0.49931613  0.05470578     0.88600
O12         O  0.08002600  0.53543458  0.15218098    -0.53400
O13         O  0.15420457  0.54773862  0.20508849    -0.56700
In14       In  0.82727817  0.50089640  0.14700586     1.36900
C15         C  0.78504908  0.57086543  0.18647819     0.81000
O16         O  0.82151549  0.53650080  0.07915378    -0.57400
O17         O  0.82359141  0.46395633  0.07973482    -0.48300
C18         C  0.91793536  0.49962247  0.15251056     0.73700
O19         O  0.89554769  0.53614137  0.14901956    -0.43200
C20         C  0.78638768  0.43267144  0.19078031     0.78400
O21         O  0.82327256  0.55640972  0.19983414    -0.55000
O22         O  0.77343275  0.44643336  0.15215131    -0.45100
O23         O  0.76803413  0.54949720  0.15322302    -0.51500
C24         C  0.82131037  0.50000211  0.05640698     0.88600
O25         O  0.89422315  0.46374761  0.15380377    -0.53400
O26         O  0.81983627  0.45399480  0.20749535    -0.56700
In27       In  0.82663163  0.50027041  0.82665460     1.36900
C28         C  0.78592419  0.56922077  0.78397550     0.81000
O29         O  0.89434652  0.53657488  0.82469155    -0.57400
O30         O  0.89395565  0.46415569  0.81934312    -0.48300
C31         C  0.82109424  0.49958734  0.91726636     0.73700
O32         O  0.82035795  0.53596995  0.89435426    -0.43200
C33         C  0.78399274  0.43152287  0.78565611     0.78400
O34         O  0.77012382  0.55171531  0.81995015    -0.55000
O35         O  0.82060573  0.44832823  0.77055160    -0.45100
O36         O  0.82233877  0.55150440  0.76949804    -0.51500
C37         C  0.91717982  0.50035306  0.82071660     0.88600
O38         O  0.82414587  0.46348151  0.89409707    -0.53400
O39         O  0.76884596  0.44986365  0.82149830    -0.56700
In40       In  0.14694795  0.49899400  0.82499582     1.36900
C41         C  0.18792313  0.43006698  0.78251284     0.81000
O42         O  0.07896556  0.46315475  0.82312207    -0.57400
O43         O  0.07976332  0.53558525  0.81836625    -0.48300
C44         C  0.15281873  0.49901172  0.91556165     0.73700
O45         O  0.15325026  0.46275013  0.89242968    -0.43200
C46         C  0.18958035  0.56790922  0.78410842     0.78400
O47         O  0.20361588  0.44768302  0.81847685    -0.55000
O48         O  0.15400338  0.54988291  0.76796569    -0.45100
O49         O  0.15147145  0.44764036  0.76797246    -0.51500
C50         C  0.05631860  0.49953609  0.81969971     0.88600
O51         O  0.14987325  0.53527698  0.89262802    -0.53400
O52         O  0.20372506  0.55064909  0.82087570    -0.56700
C53         C  0.30649527  0.73821173  0.24628000     0.06600
C54         C  0.28746394  0.75878337  0.28510941    -0.09600
C55         C  0.24812668  0.74027442  0.30522203     0.04100
C56         C  0.22780969  0.70114756  0.28646442    -0.08100
C57         C  0.24680184  0.68053482  0.24764861     0.06600
C58         C  0.28614217  0.69909536  0.22757033    -0.07500
H59         H  0.30307416  0.78919952  0.29948223     0.12200
H60         H  0.19723797  0.68692126  0.30188955     0.09700
H61         H  0.30071919  0.68330185  0.19738197     0.09500
In62       In  0.48688779  0.84005164  0.14606429     1.36900
C63         C  0.55590568  0.79979982  0.18895517     0.81000
O64         O  0.52386823  0.90708530  0.15317554    -0.57400
O65         O  0.45148166  0.90813950  0.14829331    -0.48300
C66         C  0.48619188  0.83414354  0.05544985     0.73700
O67         O  0.52257893  0.83759572  0.07807483    -0.43200
C68         C  0.41759505  0.79745726  0.18637680     0.78400
O69         O  0.54216464  0.78706785  0.15023059    -0.55000
O70         O  0.43133332  0.83628325  0.19884043    -0.45100
O71         O  0.53418188  0.83269135  0.20618101    -0.51500
C72         C  0.48794820  0.93064609  0.15197777     0.88600
O73         O  0.45016404  0.83316291  0.07890006    -0.53400
O74         O  0.43945095  0.77996667  0.15370135    -0.56700
In75       In  0.48927180  0.16033898  0.14611681     1.36900
C76         C  0.55861268  0.20249214  0.18682970     0.81000
O77         O  0.52518051  0.16430100  0.07825056    -0.57400
O78         O  0.45262986  0.16504949  0.07874292    -0.48300
C79         C  0.48902448  0.06976034  0.15194852     0.73700
O80         O  0.52538318  0.09273471  0.15089437    -0.43200
C81         C  0.42047712  0.20143884  0.18870177     0.78400
O82         O  0.54167782  0.16592269  0.20191959    -0.55000
O83         O  0.43736224  0.21652553  0.15211976    -0.45100
O84         O  0.54003426  0.21788565  0.15122443    -0.51500
C85         C  0.48876518  0.16583601  0.05544246     0.88600
O86         O  0.45280212  0.09285021  0.15052260    -0.53400
O87         O  0.43890094  0.16569603  0.20395014    -0.56700
In88       In  0.48579477  0.83959325  0.82574109     1.36900
C89         C  0.55464527  0.79643588  0.78530900     0.81000
O90         O  0.52199271  0.83673444  0.89339632    -0.57400
O91         O  0.44947916  0.83345292  0.89318209    -0.48300
C92         C  0.48653335  0.93028988  0.82030060     0.73700
O93         O  0.52254905  0.90684766  0.81961640    -0.43200
C94         C  0.41665955  0.79922584  0.78289118     0.78400
O95         O  0.53781998  0.83280355  0.76971383    -0.55000
O96         O  0.43338109  0.78382499  0.81938718    -0.45100
O97         O  0.53618580  0.78171769  0.82128755    -0.51500
C98         C  0.48571364  0.83392187  0.91632517     0.88600
O99         O  0.45008126  0.90760748  0.82320690    -0.53400
O100        O  0.43527626  0.83505123  0.76795735    -0.56700
In101      In  0.48768326  0.16022601  0.82562232     1.36900
C102        C  0.41905542  0.20314555  0.78464214     0.81000
O103        O  0.45156817  0.16405676  0.89335801    -0.57400
O104        O  0.52413751  0.16559279  0.89301524    -0.48300
C105        C  0.48759613  0.06954264  0.82021084     0.73700
O106        O  0.45136239  0.09263507  0.82130777    -0.43200
C107        C  0.55644846  0.20105505  0.78280319     0.78400
O108        O  0.43522584  0.16611457  0.76994412    -0.55000
O109        O  0.54061228  0.21550388  0.82008710    -0.45100
O110        O  0.43790321  0.21852657  0.82012876    -0.51500
C111        C  0.48793751  0.16599444  0.91623519     0.88600
O112        O  0.52393060  0.09257347  0.82130483    -0.53400
O113        O  0.53719278  0.16589626  0.76712515    -0.56700
C114        C  0.72643966  0.32203745  0.25082456     0.06600
C115        C  0.74523129  0.30181855  0.28993330    -0.09600
C116        C  0.72557532  0.26214063  0.30824207     0.04100
C117        C  0.68706373  0.24271835  0.28742898    -0.08100
C118        C  0.66820966  0.26291077  0.24833167     0.06600
C119        C  0.68792165  0.30256147  0.23004604    -0.07500
H120        H  0.77524472  0.31668239  0.30583460     0.12200
H121        H  0.67199845  0.21185467  0.30143378     0.09700
H122        H  0.67353481  0.31802069  0.19960605     0.09500
In123      In  0.14632376  0.83982000  0.48595104     1.36900
C124        C  0.18744358  0.79615026  0.55397171     0.81000
O125        O  0.07945955  0.83634609  0.52370350    -0.57400
O126        O  0.07812191  0.83438097  0.45116189    -0.48300
C127        C  0.15230543  0.93041558  0.48614635     0.73700
O128        O  0.15303992  0.90717526  0.52231685    -0.43200
C129        C  0.18846445  0.80040308  0.41590927     0.78400
O130        O  0.20188839  0.83357484  0.53841832    -0.55000
O131        O  0.15147791  0.78545612  0.43202693    -0.45100
O132        O  0.15230943  0.78059217  0.53459705    -0.51500
C133        C  0.05576393  0.83420129  0.48788999     0.88600
O134        O  0.14885970  0.90758945  0.44986218    -0.53400
O135        O  0.20429280  0.83520795  0.43566213    -0.56700
In136      In  0.82617132  0.84049348  0.48731851     1.36900
C137        C  0.78631458  0.79856677  0.41734457     0.81000
O138        O  0.89409764  0.83586367  0.45186332    -0.57400
O139        O  0.89325197  0.83586995  0.52444955    -0.48300
C140        C  0.82108681  0.93117722  0.48787799     0.73700
O141        O  0.82294073  0.90836646  0.45148191    -0.43200
C142        C  0.78295069  0.79898921  0.55551797     0.78400
O143        O  0.77126332  0.83528699  0.43392877    -0.55000
O144        O  0.82036093  0.78477275  0.53978446    -0.45100
O145        O  0.82140166  0.78288159  0.43663460    -0.51500
C146        C  0.91669474  0.83461197  0.48841629     0.88600
O147        O  0.82116953  0.90787367  0.52401794    -0.53400
O148        O  0.76721881  0.83408631  0.53625580    -0.56700
In149      In  0.14904229  0.16023241  0.48478582     1.36900
C150        C  0.18885420  0.20271768  0.41509600     0.81000
O151        O  0.08102393  0.16262224  0.44915914    -0.57400
O152        O  0.08197298  0.16695340  0.52160941    -0.48300
C153        C  0.15412357  0.06956944  0.48576016     0.73700
O154        O  0.15419761  0.09230575  0.44926679    -0.43200
C155        C  0.19234041  0.20136196  0.55313711     0.78400
O156        O  0.20453378  0.16646460  0.43209242    -0.55000
O157        O  0.15529815  0.21607939  0.53702843    -0.45100
O158        O  0.15305491  0.21759192  0.43372814    -0.51500
C159        C  0.05846139  0.16601546  0.48562408     0.88600
O160        O  0.15217685  0.09294122  0.52180230    -0.53400
O161        O  0.20769611  0.16593028  0.53417019    -0.56700
In162      In  0.82864867  0.16091593  0.48717376     1.36900
C163        C  0.78755503  0.20361485  0.55578365     0.81000
O164        O  0.89634024  0.16623516  0.52323649    -0.57400
O165        O  0.89615381  0.16448070  0.45069272    -0.48300
C166        C  0.82259450  0.07034747  0.48775156     0.73700
O167        O  0.82449167  0.09357215  0.52389941    -0.43200
C168        C  0.78584932  0.20139037  0.41818631     0.78400
O169        O  0.77372344  0.16587645  0.54044865    -0.55000
O170        O  0.82297889  0.21610889  0.43416474    -0.45100
O171        O  0.82220802  0.21984049  0.53607497    -0.51500
C172        C  0.91929688  0.16648886  0.48686427     0.88600
O173        O  0.82340151  0.09318704  0.45131275    -0.53400
O174        O  0.77025071  0.16623529  0.43750596    -0.56700
C175        C  0.30988624  0.26372742  0.72286418     0.06600
C176        C  0.28921343  0.30245202  0.74195594    -0.09600
C177        C  0.25007201  0.32115091  0.72172435     0.04100
C178        C  0.23165463  0.30112840  0.68231533    -0.08100
C179        C  0.25231327  0.26241425  0.66315437     0.06600
C180        C  0.29143994  0.24375311  0.68343710    -0.07500
H181        H  0.30326557  0.31770604  0.77267252     0.12200
H182        H  0.20114367  0.31536762  0.66685868     0.09700
H183        H  0.30720553  0.21354148  0.66886029     0.09500
C184        C  0.24970351  0.67793383  0.72313882     0.06600
C185        C  0.22969756  0.69654923  0.68383815    -0.09600
C186        C  0.24840960  0.73575659  0.66367226     0.04100
C187        C  0.28719448  0.75633999  0.68281723    -0.08100
C188        C  0.30724492  0.73776847  0.72211403     0.06600
C189        C  0.28848689  0.69854348  0.74224745    -0.07500
H190        H  0.19946485  0.68082154  0.66923978     0.12200
H191        H  0.30149037  0.78689926  0.66741388     0.09700
H192        H  0.30378541  0.68433498  0.77285643     0.09500
C193        C  0.72369989  0.32211007  0.72400599     0.06600
C194        C  0.68449299  0.30186306  0.74260763    -0.09600
C195        C  0.66577095  0.26272908  0.72231396     0.04100
C196        C  0.68623001  0.24390789  0.68335060    -0.08100
C197        C  0.72544761  0.26414238  0.66473392     0.06600
C198        C  0.74415162  0.30325632  0.68505178    -0.07500
H199        H  0.66889581  0.31621892  0.77300852     0.12200
H200        H  0.67197163  0.21337757  0.66786298     0.09700
H201        H  0.77474087  0.31869442  0.67087489     0.09500
C202        C  0.72642756  0.73917601  0.30629652     0.06600
C203        C  0.68706496  0.75909545  0.28771197    -0.09600
C204        C  0.66677339  0.74022939  0.24865424     0.04100
C205        C  0.68587341  0.70139618  0.22817170    -0.08100
C206        C  0.72522401  0.68143159  0.24669382     0.06600
C207        C  0.74548711  0.70034518  0.28576162    -0.07500
H208        H  0.67243102  0.78930230  0.30343231     0.12200
H209        H  0.67031942  0.68692137  0.19779884     0.09700
H210        H  0.77607312  0.68504016  0.29999332     0.09500
C211        C  0.72431427  0.67853662  0.72341124     0.06600
C212        C  0.68513052  0.69725451  0.74358407    -0.09600
C213        C  0.66465246  0.73613558  0.72459802     0.04100
C214        C  0.68338124  0.75627227  0.68537159    -0.08100
C215        C  0.72255160  0.73759330  0.66515806     0.06600
C216        C  0.74298176  0.69870685  0.68418929    -0.07500
H217        H  0.67086086  0.68185708  0.77413699     0.12200
H218        H  0.66776233  0.78658564  0.67086147     0.09700
H219        H  0.77350745  0.68443780  0.66877078     0.09500
C220        C  0.24992970  0.26318723  0.30527939     0.06600
C221        C  0.28926107  0.24312054  0.28677201    -0.09600
C222        C  0.31006689  0.26225128  0.24810450     0.04100
C223        C  0.29150886  0.30151143  0.22794123    -0.08100
C224        C  0.25217715  0.32161036  0.24639407     0.06600
C225        C  0.23141930  0.30243761  0.28507870    -0.07500
H226        H  0.30343932  0.21255878  0.30221290     0.12200
H227        H  0.30739311  0.31614142  0.19780438     0.09700
H228        H  0.20080499  0.31780299  0.29920062     0.09500
C229        C  0.76561472  0.22616706  0.59332018    -0.09800
C230        C  0.74719171  0.24400897  0.62552545    -0.11400
C231        C  0.96829527  0.16815221  0.48661580    -0.09800
C232        C  0.00948190  0.16798339  0.48618137    -0.11400
C233        C  0.21494082  0.22306680  0.59085680    -0.09800
C234        C  0.23258827  0.24113660  0.62341450    -0.11400
C235        C  0.21009290  0.22514914  0.37699447    -0.09800
C236        C  0.22815851  0.24297666  0.34452023    -0.11400
C237        C  0.81979994  0.98018487  0.48812064    -0.09800
C238        C  0.82030539  0.02137476  0.48804716    -0.11400
C239        C  0.74251620  0.75897132  0.62557886    -0.09800
C240        C  0.76031618  0.77711550  0.59313457    -0.11400
C241        C  0.74759707  0.75904052  0.34603929    -0.09800
C242        C  0.76526367  0.77654179  0.37890469    -0.11400
C243        C  0.15466418  0.97938052  0.48627684    -0.09800
C244        C  0.15529155  0.02056559  0.48618666    -0.11400
C245        C  0.96564001  0.83261257  0.48891100    -0.09800
C246        C  0.00680868  0.83247219  0.48877255    -0.11400
C247        C  0.22715102  0.75559716  0.62402432    -0.10600
C248        C  0.20910891  0.77336141  0.59154946    -0.11400
C249        C  0.76332826  0.22285810  0.38032222    -0.09800
C250        C  0.74557030  0.24083044  0.34779755    -0.11400
C251        C  0.59405182  0.22286530  0.76016400    -0.09800
C252        C  0.62635896  0.24115273  0.74230726    -0.11400
C253        C  0.34925803  0.24367718  0.74444192    -0.09800
C254        C  0.38151987  0.22580833  0.76276093    -0.11400
C255        C  0.48704424  0.97931095  0.81858439    -0.09800
C256        C  0.48743580  0.02051833  0.81855113    -0.11400
C257        C  0.62506266  0.75606551  0.74594461    -0.09800
C258        C  0.59251767  0.77382979  0.76390019    -0.11400
C259        C  0.34647890  0.75948339  0.74239010    -0.09800
C260        C  0.37882918  0.77768670  0.76029681    -0.11400
C261        C  0.48844698  0.16766601  0.00643854    -0.09800
C262        C  0.48815744  0.16774323  0.96524175    -0.11400
C263        C  0.59663000  0.22470069  0.20843559    -0.09800
C264        C  0.62905825  0.24250045  0.22660082    -0.11400
C265        C  0.34985146  0.24103449  0.22844851    -0.09800
C266        C  0.38253160  0.22307287  0.21095229    -0.11400
C267        C  0.48854411  0.97961163  0.15389148    -0.09800
C268        C  0.48886240  0.02079171  0.15387456    -0.11400
C269        C  0.48566270  0.83214233  0.96530140    -0.09800
C270        C  0.48580187  0.83221203  0.00648102    -0.11400
C271        C  0.62684730  0.76116004  0.22901269    -0.09800
C272        C  0.59401377  0.77872389  0.21142669    -0.11400
C273        C  0.22820655  0.76171622  0.34476206    -0.09800
C274        C  0.21064084  0.77948140  0.37751892    -0.11400
C275        C  0.34645767  0.75775115  0.22521817    -0.09800
C276        C  0.37936377  0.77516582  0.20753043    -0.11400
C277        C  0.21197756  0.60578210  0.76245089    -0.09800
C278        C  0.22972540  0.63832774  0.74444152    -0.11400
C279        C  0.20982030  0.39241189  0.76003579    -0.09800
C280        C  0.22821583  0.36022473  0.74208590    -0.11400
C281        C  0.96614745  0.50024774  0.81857306    -0.09800
C282        C  0.00732790  0.49994235  0.81823047    -0.11400
C283        C  0.76420444  0.60695041  0.76146797    -0.09800
C284        C  0.74595230  0.63926713  0.74361671    -0.11400
C285        C  0.76151734  0.39384517  0.76383300    -0.09800
C286        C  0.74372100  0.36149649  0.74557786    -0.11400
C287        C  0.81932973  0.49937419  0.96624948    -0.09800
C288        C  0.81938453  0.49954330  0.00743272    -0.11400
C289        C  0.74522015  0.64191172  0.22527555    -0.09800
C290        C  0.76280525  0.60919377  0.20745468    -0.11400
C291        C  0.74731150  0.36210575  0.23127721    -0.09800
C292        C  0.76501553  0.39487496  0.21361114    -0.11400
C293        C  0.96692835  0.49894603  0.15408414    -0.09800
C294        C  0.00811556  0.49877297  0.15377323    -0.11400
C295        C  0.15499323  0.49906354  0.00571931    -0.09800
C296        C  0.15483016  0.49899160  0.96453544    -0.11400
C297        C  0.20799949  0.60785365  0.21038717    -0.09800
C298        C  0.22559812  0.64073044  0.22794261    -0.11400
C299        C  0.23240300  0.36125989  0.22504427    -0.09800
C300        C  0.21455117  0.39376267  0.20712156    -0.11400
loop_ 
_geom_bond_atom_site_label_1 
_geom_bond_atom_site_label_2 
_geom_bond_distance 
_geom_bond_site_symmetry_2 
_ccdc_geom_bond_type 
In1           O3   2.250       .  S
In1           O4   2.248       .  S
In1          O12   2.248       .  S
In1           O6   2.249       .  S
In1           O8   2.245       .  S
In1           O9   2.245       .  S
In1          O10   2.250       .  S
In1          O13   2.250       .  S
C2            O8   1.259       .  A
C2           O10   1.259       .  A
C2          C300   1.435       .  S
O3           C11   1.258       .  A
O4           C11   1.258       .  A
C5           O12   1.258       .  A
C5            O6   1.258       .  A
C5          C294   1.435       .  S
C7            O9   1.259       .  A
C7           O13   1.259       .  A
C7          C297   1.435       .  S
C11         C295   1.434       .  S
In14         O16   2.249       .  S
In14         O17   2.248       .  S
In14         O25   2.250       .  S
In14         O19   2.248       .  S
In14         O21   2.245       .  S
In14         O22   2.245       .  S
In14         O23   2.251       .  S
In14         O26   2.250       .  S
C15          O21   1.259       .  A
C15          O23   1.259       .  A
C15         C290   1.435       .  S
O16          C24   1.258       .  A
O17          C24   1.258       .  A
C18          O25   1.258       .  A
C18          O19   1.258       .  A
C18         C293   1.435       .  S
C20          O22   1.259       .  A
C20          O26   1.259       .  A
C20         C292   1.435       .  S
C24         C288   1.434       .  S
In27         O29   2.248       .  S
In27         O30   2.247       .  S
In27         O38   2.249       .  S
In27         O32   2.247       .  S
In27         O34   2.246       .  S
In27         O35   2.244       .  S
In27         O36   2.250       .  S
In27         O39   2.248       .  S
C28          O34   1.258       .  A
C28          O36   1.259       .  A
C28         C283   1.435       .  S
O29          C37   1.259       .  A
O30          C37   1.258       .  A
C31          O38   1.258       .  A
C31          O32   1.258       .  A
C31         C287   1.434       .  S
C33          O35   1.258       .  A
C33          O39   1.259       .  A
C33         C285   1.433       .  S
C37         C281   1.434       .  S
In40         O42   2.249       .  S
In40         O43   2.248       .  S
In40         O51   2.247       .  S
In40         O45   2.248       .  S
In40         O47   2.246       .  S
In40         O48   2.246       .  S
In40         O49   2.249       .  S
In40         O52   2.248       .  S
C41          O47   1.259       .  A
C41          O49   1.259       .  A
C41         C279   1.435       .  S
O42          C50   1.258       .  A
O43          C50   1.258       .  A
C44          O51   1.259       .  A
C44          O45   1.259       .  A
C44         C296   1.434       .  S
C46          O48   1.259       .  A
C46          O52   1.259       .  A
C46         C277   1.434       .  S
C50         C282   1.434       .  S
C53         C275   1.440       .  S
C53          C54   1.401       .  A
C53          C58   1.401       .  A
C54          C55   1.401       .  A
C54          H59   1.085       .  S
C55         C273   1.440       .  S
C55          C56   1.401       .  A
C56          C57   1.401       .  A
C56          H60   1.085       .  S
C57         C298   1.440       .  S
C57          C58   1.401       .  A
C58          H61   1.084       .  S
In62         O64   2.249       .  S
In62         O65   2.247       .  S
In62         O73   2.249       .  S
In62         O67   2.248       .  S
In62         O69   2.245       .  S
In62         O70   2.245       .  S
In62         O71   2.249       .  S
In62         O74   2.250       .  S
C63          O69   1.259       .  A
C63          O71   1.259       .  A
C63         C272   1.435       .  S
O64          C72   1.258       .  A
O65          C72   1.258       .  A
C66          O73   1.258       .  A
C66          O67   1.258       .  A
C66         C270   1.434       .  S
C68          O70   1.259       .  A
C68          O74   1.259       .  A
C68         C276   1.435       .  S
C72         C267   1.434       .  S
In75         O77   2.250       .  S
In75         O78   2.249       .  S
In75         O86   2.247       .  S
In75         O80   2.248       .  S
In75         O82   2.246       .  S
In75         O83   2.246       .  S
In75         O84   2.249       .  S
In75         O87   2.250       .  S
C76          O82   1.259       .  A
C76          O84   1.259       .  A
C76         C263   1.435       .  S
O77          C85   1.258       .  A
O78          C85   1.258       .  A
C79          O86   1.258       .  A
C79          O80   1.258       .  A
C79         C268   1.434       .  S
C81          O83   1.259       .  A
C81          O87   1.259       .  A
C81         C266   1.435       .  S
C85         C261   1.435       .  S
In88         O90   2.247       .  S
In88         O91   2.248       .  S
In88         O99   2.250       .  S
In88         O93   2.249       .  S
In88         O95   2.246       .  S
In88         O96   2.246       .  S
In88         O97   2.250       .  S
In88        O100   2.250       .  S
C89          O95   1.259       .  A
C89          O97   1.259       .  A
C89         C258   1.435       .  S
O90          C98   1.258       .  A
O91          C98   1.258       .  A
C92          O99   1.259       .  A
C92          O93   1.258       .  A
C92         C255   1.435       .  S
C94          O96   1.259       .  A
C94         O100   1.259       .  A
C94         C260   1.435       .  S
C98         C269   1.434       .  S
In101       O103   2.249       .  S
In101       O104   2.248       .  S
In101       O112   2.250       .  S
In101       O106   2.248       .  S
In101       O108   2.246       .  S
In101       O109   2.244       .  S
In101       O110   2.250       .  S
In101       O113   2.248       .  S
C102        O108   1.258       .  A
C102        O110   1.259       .  A
C102        C254   1.435       .  S
O103        C111   1.259       .  A
O104        C111   1.258       .  A
C105        O112   1.259       .  A
C105        O106   1.258       .  A
C105        C256   1.435       .  S
C107        O109   1.259       .  A
C107        O113   1.259       .  A
C107        C251   1.434       .  S
C111        C262   1.435       .  S
C114        C291   1.440       .  S
C114        C115   1.401       .  A
C114        C119   1.401       .  A
C115        C116   1.401       .  A
C115        H120   1.085       .  S
C116        C250   1.439       .  S
C116        C117   1.401       .  A
C117        C118   1.401       .  A
C117        H121   1.085       .  S
C118        C264   1.440       .  S
C118        C119   1.401       .  A
C119        H122   1.084       .  S
In123       O125   2.249       .  S
In123       O126   2.246       .  S
In123       O134   2.248       .  S
In123       O128   2.248       .  S
In123       O130   2.244       .  S
In123       O131   2.246       .  S
In123       O132   2.250       .  S
In123       O135   2.250       .  S
C124        O130   1.258       .  A
C124        O132   1.259       .  A
C124        C248   1.434       .  S
O125        C133   1.258       .  A
O126        C133   1.258       .  A
C127        O134   1.258       .  A
C127        O128   1.258       .  A
C127        C243   1.434       .  S
C129        O131   1.259       .  A
C129        O135   1.259       .  A
C129        C274   1.435       .  S
C133        C246   1.434       .  S
In136       O138   2.246       .  S
In136       O139   2.248       .  S
In136       O147   2.250       .  S
In136       O141   2.248       .  S
In136       O143   2.247       .  S
In136       O144   2.246       .  S
In136       O145   2.249       .  S
In136       O148   2.249       .  S
C137        O143   1.259       .  A
C137        O145   1.259       .  A
C137        C242   1.435       .  S
O138        C146   1.258       .  A
O139        C146   1.258       .  A
C140        O147   1.258       .  A
C140        O141   1.258       .  A
C140        C237   1.434       .  S
C142        O144   1.259       .  A
C142        O148   1.259       .  A
C142        C240   1.435       .  S
C146        C245   1.434       .  S
In149       O151   2.248       .  S
In149       O152   2.248       .  S
In149       O160   2.249       .  S
In149       O154   2.248       .  S
In149       O156   2.246       .  S
In149       O157   2.245       .  S
In149       O158   2.250       .  S
In149       O161   2.250       .  S
C150        O156   1.259       .  A
C150        O158   1.259       .  A
C150        C235   1.435       .  S
O151        C159   1.259       .  A
O152        C159   1.258       .  A
C153        O160   1.258       .  A
C153        O154   1.258       .  A
C153        C244   1.434       .  S
C155        O157   1.259       .  A
C155        O161   1.259       .  A
C155        C233   1.435       .  S
C159        C232   1.435       .  S
In162       O164   2.250       .  S
In162       O165   2.248       .  S
In162       O173   2.247       .  S
In162       O167   2.248       .  S
In162       O169   2.244       .  S
In162       O170   2.245       .  S
In162       O171   2.249       .  S
In162       O174   2.249       .  S
C163        O169   1.258       .  A
C163        O171   1.259       .  A
C163        C229   1.433       .  S
O164        C172   1.259       .  A
O165        C172   1.258       .  A
C166        O173   1.259       .  A
C166        O167   1.258       .  A
C166        C238   1.434       .  S
C168        O170   1.259       .  A
C168        O174   1.259       .  A
C168        C249   1.435       .  S
C172        C231   1.435       .  S
C175        C253   1.440       .  S
C175        C176   1.401       .  A
C175        C180   1.401       .  A
C176        C177   1.401       .  A
C176        H181   1.084       .  S
C177        C280   1.440       .  S
C177        C178   1.401       .  A
C178        C179   1.401       .  A
C178        H182   1.085       .  S
C179        C234   1.440       .  S
C179        C180   1.401       .  A
C180        H183   1.085       .  S
C184        C278   1.439       .  S
C184        C185   1.401       .  A
C184        C189   1.401       .  A
C185        C186   1.401       .  A
C185        H190   1.085       .  S
C186        C247   1.439       .  S
C186        C187   1.401       .  A
C187        C188   1.401       .  A
C187        H191   1.085       .  S
C188        C259   1.440       .  S
C188        C189   1.401       .  A
C189        H192   1.085       .  S
C193        C286   1.438       .  S
C193        C194   1.401       .  A
C193        C198   1.401       .  A
C194        C195   1.401       .  A
C194        H199   1.085       .  S
C195        C252   1.438       .  S
C195        C196   1.401       .  A
C196        C197   1.401       .  A
C196        H200   1.085       .  S
C197        C230   1.438       .  S
C197        C198   1.401       .  A
C198        H201   1.085       .  S
C202        C241   1.440       .  S
C202        C203   1.401       .  A
C202        C207   1.401       .  A
C203        C204   1.401       .  A
C203        H208   1.085       .  S
C204        C271   1.440       .  S
C204        C205   1.401       .  A
C205        C206   1.401       .  A
C205        H209   1.085       .  S
C206        C289   1.440       .  S
C206        C207   1.402       .  A
C207        H210   1.085       .  S
C211        C284   1.440       .  S
C211        C212   1.401       .  A
C211        C216   1.401       .  A
C212        C213   1.401       .  A
C212        H217   1.084       .  S
C213        C257   1.440       .  S
C213        C214   1.401       .  A
C214        C215   1.401       .  A
C214        H218   1.085       .  S
C215        C239   1.440       .  S
C215        C216   1.401       .  A
C216        H219   1.085       .  S
C220        C236   1.440       .  S
C220        C221   1.401       .  A
C220        C225   1.401       .  A
C221        C222   1.401       .  A
C221        H226   1.085       .  S
C222        C265   1.440       .  S
C222        C223   1.401       .  A
C223        C224   1.401       .  A
C223        H227   1.085       .  S
C224        C299   1.440       .  S
C224        C225   1.401       .  A
C225        H228   1.084       .  S
C229        C230   1.205       .  T
C231        C232   1.205   1_655  T
C233        C234   1.206       .  T
C235        C236   1.206       .  T
C237        C238   1.205   1_565  T
C239        C240   1.206       .  T
C241        C242   1.206       .  T
C243        C244   1.205   1_565  T
C245        C246   1.205   1_655  T
C247        C248   1.205       .  T
C249        C250   1.206       .  T
C251        C252   1.205       .  T
C253        C254   1.206       .  T
C255        C256   1.206   1_565  T
C257        C258   1.206       .  T
C259        C260   1.206       .  T
C261        C262   1.206   1_554  T
C263        C264   1.206       .  T
C265        C266   1.206       .  T
C267        C268   1.205   1_565  T
C269        C270   1.205   1_556  T
C271        C272   1.206       .  T
C273        C274   1.206       .  T
C275        C276   1.206       .  T
C277        C278   1.205       .  T
C279        C280   1.206       .  T
C281        C282   1.205   1_655  T
C283        C284   1.206       .  T
C285        C286   1.205       .  T
C287        C288   1.205   1_556  T
C289        C290   1.206       .  T
C291        C292   1.206       .  T
C293        C294   1.205   1_655  T
C295        C296   1.205   1_554  T
C297        C298   1.206       .  T
C299        C300   1.206       .  T
