geometry optimzed in LAMMPS
_audit_creation_date              2020-12-01 
_audit_creation_method            'lammps2cif' 
_symmetry_space_group_name_H-M    'P1' 
_symmetry_Int_Tables_number       1 
_symmetry_cell_setting            triclinic 
loop_ 
_symmetry_equiv_pos_as_xyz 
  x,y,z 
_cell_length_a                    31.64160729 
_cell_length_b                    31.872546586700057 
_cell_length_c                    27.19160862198105 
_cell_angle_alpha                 89.61146633087952 
_cell_angle_beta                  89.96710173438812 
_cell_angle_gamma                 90.37242022267544 
loop_ 
_atom_site_label 
_atom_site_type_symbol 
_atom_site_fract_x 
_atom_site_fract_y 
_atom_site_fract_z 
_atom_site_charge 
N1          N  0.65884930  0.25153587  0.99534088    -0.25600
N2          N  0.61902784  0.26403554  0.99391058    -0.33500
C3          C  0.59325271  0.23048386  0.99317374     0.02700
C4          C  0.61746409  0.19453549  0.99423438     0.08700
C5          C  0.65902332  0.20907219  0.99542188    -0.04400
H6          H  0.55920161  0.23258424  0.99159579     0.09400
H7          H  0.68725896  0.19012421  0.99638781     0.10600
Cu8        Cu  0.59802873  0.32532333  0.99277733     0.44200
Cu9        Cu  0.71068829  0.29373547  0.99728816     0.42000
Cu10       Cu  0.67528834  0.40270794  0.00293036     0.43900
N11         N  0.58285406  0.38828394  0.99264048    -0.33000
N12         N  0.61236703  0.41744925  0.99693062    -0.27300
C13         C  0.59437434  0.45549246  0.99563344    -0.03400
C14         C  0.55143410  0.44974957  0.99024537     0.08800
C15         C  0.54495155  0.40688161  0.98849399     0.02600
H16         H  0.61131385  0.48498478  0.99836197     0.10300
H17         H  0.51511075  0.39046671  0.98462478     0.09400
N18         N  0.73767275  0.38509327  0.00251506    -0.34500
N19         N  0.75184797  0.34622169  0.99980111    -0.26600
C20         C  0.79458591  0.34790396  0.99860222    -0.01900
C21         C  0.80744157  0.38973076  0.00076410     0.06700
C22         C  0.77027205  0.41213484  0.00316858     0.04800
H23         H  0.81484878  0.32079226  0.99611241     0.09900
H24         H  0.76665526  0.44580294  0.00455374     0.08800
N25         N  0.73081961  0.85900952  0.48774218    -0.25600
N26         N  0.74279910  0.89828438  0.49552111    -0.33500
C27         C  0.70878034  0.92328733  0.49479228     0.02700
C28         C  0.67327357  0.89896002  0.48598679     0.08700
C29         C  0.68845255  0.85834959  0.48138446    -0.04400
H30         H  0.71009633  0.95690548  0.49978757     0.09400
H31         H  0.66995204  0.83034481  0.47446188     0.10600
Cu32       Cu  0.80443034  0.91827545  0.50657547     0.44200
Cu33       Cu  0.77339174  0.80836430  0.48751607     0.42000
Cu34       Cu  0.88282214  0.84037927  0.51319576     0.43900
N35         N  0.86755099  0.93261937  0.51776067    -0.33000
N36         N  0.89689423  0.90341311  0.52034184    -0.27300
C37         C  0.93480628  0.92182144  0.52710322    -0.03400
C38         C  0.92872195  0.96461370  0.52898221     0.08800
C39         C  0.88587474  0.97054302  0.52284850     0.02600
H40         H  0.96449513  0.90531159  0.52983769     0.10300
H41         H  0.86930304  0.00011845  0.52159494     0.09400
N42         N  0.86365011  0.77903701  0.50238099    -0.34500
N43         N  0.82468878  0.76660917  0.49198546    -0.26600
C44         C  0.82501592  0.72460712  0.48534849    -0.01900
C45         C  0.86595095  0.71020235  0.49240116     0.06700
C46         C  0.88940256  0.74574765  0.50304151     0.04800
H47         H  0.79753494  0.70589627  0.47611576     0.09900
H48         H  0.92305037  0.74770359  0.50968794     0.08800
N49         N  0.35792953  0.74091990  0.99996243    -0.25600
N50         N  0.39729679  0.72773543  0.00542092    -0.33500
C51         C  0.42331054  0.76089166  0.00977354     0.02700
C52         C  0.39992619  0.79702725  0.00614056     0.08700
C53         C  0.35840348  0.78341534  0.99984122    -0.04400
H54         H  0.45719175  0.75878716  0.01445630     0.09400
H55         H  0.33064246  0.80284191  0.99637526     0.10600
Cu56       Cu  0.41749098  0.66612823  0.00380022     0.44200
Cu57       Cu  0.30570627  0.69947285  0.99467122     0.42000
Cu58       Cu  0.33979996  0.59097775  0.97972845     0.43900
N59         N  0.43215432  0.60357126  0.99411559    -0.33000
N60         N  0.40258577  0.57539235  0.98462698    -0.27300
C61         C  0.42038384  0.53744600  0.98026651    -0.03400
C62         C  0.46327338  0.54223816  0.98716752     0.08800
C63         C  0.46990003  0.58441652  0.99589958     0.02600
H64         H  0.40330434  0.50861135  0.97308925     0.10300
H65         H  0.49970121  0.59994026  0.00336898     0.09400
N66         N  0.27759650  0.60908937  0.98224043    -0.34500
N67         N  0.26387742  0.64770462  0.98945846    -0.26600
C68         C  0.22112432  0.64635645  0.99147458    -0.01900
C69         C  0.20800452  0.60499328  0.98462584     0.06700
C70         C  0.24465441  0.58264031  0.97874587     0.04800
H71         H  0.20116441  0.67339959  0.99662569     0.09900
H72         H  0.24730605  0.54920776  0.97291073     0.08800
N73         N  0.51496177  0.99547680  0.54742568    -0.34900
N74         N  0.43065191  0.03348184  0.54497480    -0.55500
N75         N  0.43180484  0.02993462  0.43836553    -0.34900
N76         N  0.51443138  0.98784540  0.44093555    -0.55500
C77         C  0.50518921  0.99419894  0.59591814     0.28600
C78         C  0.55010093  0.97202594  0.54095253     0.28600
C79         C  0.39089830  0.04069375  0.44590832     0.28600
C80         C  0.43554913  0.01779236  0.39091174     0.28600
C81         C  0.43805634  0.03576370  0.59388643     0.37300
C82         C  0.39443288  0.05467346  0.53619549     0.37300
C83         C  0.55495197  0.97640822  0.44941853     0.37300
C84         C  0.51114239  0.99500973  0.39199962     0.37300
C85         C  0.53482181  0.96996068  0.62057516    -0.20200
C86         C  0.56312163  0.95610579  0.58599121    -0.20200
C87         C  0.36857169  0.03577036  0.40236842    -0.20200
C88         C  0.39668295  0.02141729  0.36776875    -0.20200
C89         C  0.40611432  0.05821444  0.61640533    -0.21300
C90         C  0.37848172  0.07003301  0.58000182    -0.21300
C91         C  0.57728262  0.97568581  0.40558722    -0.21300
C92         C  0.54955573  0.98732839  0.36924326    -0.21300
C93         C  0.47160941  0.01575656  0.61912333    -0.16600
C94         C  0.57198588  0.96601002  0.49606214    -0.16600
C95         C  0.47356358  0.00621391  0.36707191    -0.16600
C96         C  0.37355653  0.05688977  0.49008627    -0.16600
H97         H  0.53616116  0.96313757  0.65958631     0.16300
H98         H  0.59026600  0.93652349  0.59325102     0.16300
H99         H  0.33552323  0.04232998  0.39585621     0.16300
H100        H  0.38937900  0.01478698  0.32971143     0.16300
H101        H  0.40260027  0.06474128  0.65519954     0.14600
H102        H  0.34949849  0.08716831  0.58557763     0.14600
H103        H  0.61017006  0.96778849  0.40026047     0.14600
H104        H  0.55690676  0.98986647  0.33045385     0.14600
H105        H  0.50115621  0.01479555  0.52129077     0.27800
H106        H  0.45676107  0.03506452  0.46233047     0.27800
N107        N  0.51013871  0.04284102  0.04675551    -0.34900
N108        N  0.50833329  0.04652163  0.93970861    -0.55500
N109        N  0.45262035  0.97219822  0.93931934    -0.34900
N110        N  0.45946052  0.96579872  0.04613670    -0.55500
C111        C  0.53807343  0.07458858  0.03886405     0.28600
C112        C  0.51185819  0.03248772  0.09508291     0.28600
C113        C  0.46097208  0.97643623  0.89063777     0.28600
C114        C  0.43601393  0.93328478  0.94651769     0.28600
C115        C  0.52667218  0.08424282  0.94849099     0.37300
C116        C  0.49696182  0.04663363  0.89174096     0.37300
C117        C  0.46028825  0.97240753  0.09525245     0.37300
C118        C  0.43235911  0.93346197  0.03848132     0.37300
C119        C  0.55791116  0.08447558  0.08278647    -0.20200
C120        C  0.54144363  0.05792314  0.11820336    -0.20200
C121        C  0.44866599  0.94014182  0.86650912    -0.20200
C122        C  0.43304214  0.91296956  0.90167633    -0.20200
C123        C  0.52783298  0.10798022  0.90558032    -0.21300
C124        C  0.50917955  0.08413774  0.86964973    -0.21300
C125        C  0.43406831  0.94363938  0.11890975    -0.21300
C126        C  0.41645267  0.91902767  0.08303479    -0.21300
C127        C  0.54307313  0.09752028  0.99435743    -0.16600
C128        C  0.48546426  0.00283238  0.11949056    -0.16600
C129        C  0.42292212  0.91554916  0.99212684    -0.16600
C130        C  0.47750841  0.01274031  0.86693034    -0.16600
H131        H  0.58117270  0.10892037  0.08895894     0.16300
H132        H  0.54973750  0.05794539  0.15681784     0.16300
H133        H  0.45079572  0.93377947  0.82753715     0.16300
H134        H  0.42104874  0.88166089  0.89489137     0.16300
H135        H  0.54080106  0.13923302  0.90060900     0.14600
H136        H  0.50496001  0.09344317  0.83162169     0.14600
H137        H  0.42831318  0.94052841  0.15800835     0.14600
H138        H  0.39431282  0.89349849  0.08914599     0.14600
H139        H  0.48735909  0.03273208  0.02228241     0.27800
H140        H  0.45437873  0.99588751  0.96508833     0.27800
N141        N  0.12089433  0.25684613  0.51537496    -0.25600
N142        N  0.08327015  0.24317703  0.52993882    -0.33500
C143        C  0.05757854  0.27598413  0.53673341     0.02700
C144        C  0.07933853  0.31235880  0.52536736     0.08700
C145        C  0.11955251  0.29921167  0.51182838    -0.04400
H146        H  0.02493619  0.27343496  0.54833283     0.09400
H147        H  0.14596433  0.31892404  0.50101365     0.10600
Cu148      Cu  0.06535644  0.18088920  0.53760245     0.44200
Cu149      Cu  0.17226129  0.21608229  0.50341131     0.42000
Cu150      Cu  0.14194340  0.10496422  0.50924359     0.43900
N151        N  0.05134051  0.11740638  0.53606823    -0.33000
N152        N  0.07999635  0.08907459  0.52489839    -0.27300
C153        C  0.06170058  0.05088244  0.52450323    -0.03400
C154        C  0.01954244  0.05564949  0.53598728     0.08800
C155        C  0.01383900  0.09810221  0.54299021     0.02600
H156        H  0.07768436  0.02205432  0.51536107     0.10300
H157        H  0.98452381  0.11391459  0.55113216     0.09400
N158        N  0.20335683  0.12602618  0.50023761    -0.34500
N159        N  0.21541391  0.16586196  0.49886242    -0.26600
C160        C  0.25809145  0.16712720  0.49620476    -0.01900
C161        C  0.27326767  0.12624532  0.49556457     0.06700
C162        C  0.23746267  0.10122726  0.49821652     0.03200
H163        H  0.27680611  0.19565357  0.49561263     0.09900
H164        H  0.23605890  0.06735474  0.50024769     0.08800
N165        N  0.97034431  0.55896491  0.55645301    -0.34900
N166        N  0.01882121  0.48117207  0.55754259    -0.55500
N167        N  0.02291781  0.48419773  0.45072099    -0.34900
N168        N  0.96908037  0.55929944  0.44985467    -0.55500
C169        C  0.96712337  0.54810961  0.60452099     0.28600
C170        C  0.94203203  0.58982639  0.54788339     0.28600
C171        C  0.03881766  0.44537999  0.45918335     0.28600
C172        C  0.01258792  0.48656697  0.40243311     0.28600
C173        C  0.01980849  0.49007227  0.60610146     0.37300
C174        C  0.04670169  0.44978566  0.55033940     0.37300
C175        C  0.95182650  0.59750473  0.45738923     0.37300
C176        C  0.97875692  0.55740427  0.40148357     0.37300
C177        C  0.93628595  0.57232464  0.62669514    -0.20200
C178        C  0.92058098  0.59872405  0.59099671    -0.20200
C179        C  0.03918018  0.42313398  0.41551807    -0.20200
C180        C  0.02277278  0.44908363  0.37978427    -0.20200
C181        C  0.04823218  0.46398322  0.62992528    -0.21300
C182        C  0.06528068  0.43851970  0.59461464    -0.21300
C183        C  0.94989771  0.61968855  0.41346257    -0.21300
C184        C  0.96668311  0.59420756  0.37800798    -0.21300
C185        C  0.99350024  0.51945853  0.62973484    -0.16600
C186        C  0.93705919  0.61226527  0.50323537    -0.16600
C187        C  0.99620914  0.52219853  0.37763299    -0.16600
C188        C  0.05393570  0.42964405  0.50481581    -0.16600
H189        H  0.92666027  0.57165454  0.66489626     0.16300
H190        H  0.89642698  0.62216569  0.59629037     0.16300
H191        H  0.05006054  0.39140321  0.40988093     0.16300
H192        H  0.01878008  0.44117389  0.34141327     0.16300
H193        H  0.05562938  0.46309204  0.66877638     0.14600
H194        H  0.08856150  0.41435163  0.60091247     0.14600
H195        H  0.93762106  0.65091047  0.40745091     0.14600
H196        H  0.96976068  0.60197710  0.33935471     0.14600
H197        H  0.99420769  0.54985607  0.53272377     0.27800
H198        H  0.02293376  0.50902423  0.47518595     0.27800
N199        N  0.95636888  0.49936343  0.95100387    -0.34900
N200        N  0.95670874  0.49928928  0.05777465    -0.55500
N201        N  0.03406604  0.55072414  0.05646527    -0.34900
N202        N  0.03608966  0.54666780  0.94954340    -0.55500
C203        C  0.92396611  0.47228421  0.95973701     0.28600
C204        C  0.96564409  0.49761386  0.90248358     0.28600
C205        C  0.03179133  0.54033678  0.10478830     0.28600
C206        C  0.07362618  0.56557028  0.04775687     0.28600
C207        C  0.91769565  0.48283145  0.05039846     0.37300
C208        C  0.95914566  0.50901034  0.10603376     0.37300
C209        C  0.02732240  0.54740841  0.90084307     0.37300
C210        C  0.06919092  0.57309775  0.95643189     0.37300
C211        C  0.91224738  0.45337034  0.91598181    -0.20200
C212        C  0.93857761  0.46919601  0.87996971    -0.20200
C213        C  0.07015615  0.54932821  0.12718374    -0.20200
C214        C  0.09651097  0.56519049  0.09125140    -0.20200
C215        C  0.89555741  0.48145384  0.09442146    -0.21300
C216        C  0.92180478  0.49794329  0.12962399    -0.21300
C217        C  0.05538966  0.57404590  0.87664006    -0.21300
C218        C  0.08184361  0.59030015  0.91180787    -0.21300
C219        C  0.90239906  0.46706117  0.00514016    -0.16600
C220        C  0.99589544  0.52283470  0.87738279    -0.16600
C221        C  0.08946008  0.58048673  0.00205480    -0.16600
C222        C  0.99548548  0.52506371  0.12979698    -0.16600
H223        H  0.88687776  0.43104270  0.91019268     0.16300
H224        H  0.93735203  0.46119915  0.84137224     0.16300
H225        H  0.07833913  0.54501412  0.16552212     0.16300
H226        H  0.12891269  0.57524492  0.09661253     0.16300
H227        H  0.86395022  0.46938565  0.10072372     0.14600
H228        H  0.91433986  0.50111679  0.16826560     0.14600
H229        H  0.05684845  0.58089692  0.83763286     0.14600
H230        H  0.10751265  0.61222754  0.90519314     0.14600
H231        H  0.96799564  0.52146854  0.97529112     0.27800
H232        H  0.00882937  0.55171612  0.03217636     0.27800
C233        C  0.99604175  0.52471812  0.18326802    -0.16800
C234        C  0.99633040  0.52398462  0.22769386     0.07200
C235        C  0.99652033  0.52292792  0.27972620     0.09100
C236        C  0.99651618  0.52228748  0.32415616    -0.17700
C237        C  0.99500164  0.52285725  0.82393380    -0.16800
C238        C  0.99420342  0.52242679  0.77953472     0.07200
C239        C  0.99353972  0.52133583  0.72755235     0.09100
C240        C  0.99333125  0.52025242  0.68316565    -0.17700
C241        C  0.06122795  0.35503965  0.52840689    -0.14800
C242        C  0.07697817  0.38877168  0.50460380    -0.29900
H243        H  0.03187014  0.35829912  0.54877903     0.14300
H244        H  0.10424188  0.38543307  0.48070120     0.14800
C245        C  0.31811219  0.11240189  0.49544022    -0.14800
C246        C  0.32891833  0.07192370  0.48880652    -0.29900
H247        H  0.34273070  0.13577545  0.50112337     0.14300
H248        H  0.30470007  0.04874448  0.48066806     0.14800
C249        C  0.48380062  0.00381571  0.17298362    -0.16800
C250        C  0.48073251  0.00452137  0.21730135     0.07200
C251        C  0.47665360  0.00509531  0.26918403     0.09100
C252        C  0.47417861  0.00552089  0.31355581    -0.17700
C253        C  0.47123332  0.01650061  0.67263703    -0.16800
C254        C  0.47182800  0.01656161  0.71708404     0.07200
C255        C  0.47338046  0.01594732  0.76912601     0.09100
C256        C  0.47515107  0.01481429  0.81351979    -0.17700
C257        C  0.41796445  0.83983380  0.00997444    -0.14800
C258        C  0.39997124  0.87438556  0.99103329    -0.29900
H259        H  0.44912054  0.84267657  0.02651093     0.14300
H260        H  0.37061308  0.87188258  0.97055046     0.14800
C261        C  0.16515568  0.58630216  0.98209919    -0.14800
C262        C  0.13071029  0.60353070  0.00218887    -0.29900
H263        H  0.16224210  0.55554054  0.96533885     0.14300
H264        H  0.13341083  0.63252089  0.02273861     0.14800
C265        C  0.96067253  0.99656702  0.53361733    -0.11600
C266        C  0.98749085  0.02352653  0.53580072    -0.13200
C267        C  0.62880530  0.91329268  0.48176250    -0.14800
C268        C  0.61642703  0.95077690  0.49915844    -0.29900
H269        H  0.60567401  0.89248278  0.46507186     0.14300
H270        H  0.63873262  0.97028987  0.51910315     0.14800
C271        C  0.91947167  0.65538909  0.50652463    -0.14800
C272        C  0.88170358  0.66657401  0.48793877    -0.29900
H273        H  0.93778271  0.67783521  0.52764441     0.14300
H274        H  0.86200642  0.64329229  0.46988046     0.14800
C275        C  0.49427189  0.50960063  0.98713400    -0.11600
C276        C  0.52008192  0.48200512  0.98800769    -0.13200
C277        C  0.85125811  0.40695120  0.99973799    -0.14800
C278        C  0.85913022  0.44835471  0.00479915    -0.29900
H279        H  0.87741526  0.38545508  0.99499612     0.14300
H280        H  0.83339875  0.46985793  0.01153731     0.14800
C281        C  0.56058956  0.14088257  0.99730933    -0.14800
C282        C  0.60207877  0.15029860  0.99353411    -0.29900
H283        H  0.53755335  0.16561769  0.00148270     0.14300
H284        H  0.62490085  0.12521801  0.98976301     0.14800
loop_ 
_geom_bond_atom_site_label_1 
_geom_bond_atom_site_label_2 
_geom_bond_distance 
_geom_bond_site_symmetry_2 
_ccdc_geom_bond_type 
N1            N2   1.324       .  A
N1            C5   1.353       .  A
N1           Cu9   2.115       .  S
N2            C3   1.341       .  A
N2           Cu8   2.067       .  S
C3            C4   1.383       .  A
C3            H6   1.081       .  S
C4            C5   1.392       .  A
C4          C282   1.489       .  S
C5            H7   1.082       .  S
Cu8          N11   2.066       .  S
Cu9          N19   2.115       .  S
Cu10         N12   2.055   1_554  S
Cu10         N18   2.056       .  S
N11          N12   1.319       .  A
N11          C15   1.346       .  A
N12          C13   1.343       .  A
C13          C14   1.378       .  A
C13          H16   1.082       .  S
C14          C15   1.381       .  A
C14         C276   1.434       .  S
C15          H17   1.082       .  S
N18          N19   1.323   1_554  A
N18          C22   1.340       .  A
N19          C20   1.353       .  A
C20          C21   1.393   1_556  A
C20          H23   1.082       .  S
C21          C22   1.382       .  A
C21         C277   1.488   1_554  S
C22          H24   1.081       .  S
N25          N26   1.324       .  A
N25          C29   1.352       .  A
N25         Cu33   2.109       .  S
N26          C27   1.344       .  A
N26         Cu32   2.070       .  S
C27          C28   1.383       .  A
C27          H30   1.082       .  S
C28          C29   1.390       .  A
C28         C267   1.486       .  S
C29          H31   1.082       .  S
Cu32         N35   2.069       .  S
Cu33         N43   2.109       .  S
Cu34         N36   2.065       .  S
Cu34         N42   2.066       .  S
N35          N36   1.321       .  A
N35          C39   1.345       .  A
N36          C37   1.345       .  A
C37          C38   1.380       .  A
C37          H40   1.082       .  S
C38          C39   1.380       .  A
C38         C265   1.437       .  S
C39          H41   1.082   1_565  S
N42          N43   1.324       .  A
N42          C46   1.342       .  A
N43          C44   1.352       .  A
C44          C45   1.390       .  A
C44          H47   1.082       .  S
C45          C46   1.383       .  A
C45         C272   1.486       .  S
C46          H48   1.081       .  S
N49          N50   1.325   1_556  A
N49          C53   1.354       .  A
N49         Cu57   2.114       .  S
N50          C51   1.341       .  A
N50         Cu56   2.070       .  S
C51          C52   1.376       .  A
C51          H54   1.082       .  S
C52          C53   1.392   1_554  A
C52         C257   1.480       .  S
C53          H55   1.082       .  S
Cu56         N59   2.069   1_554  S
Cu57         N67   2.114       .  S
Cu58         N60   2.055       .  S
Cu58         N66   2.056       .  S
N59          N60   1.319       .  A
N59          C63   1.346       .  A
N60          C61   1.343       .  A
C61          C62   1.378       .  A
C61          H64   1.082       .  S
C62          C63   1.381       .  A
C62         C275   1.434       .  S
C63          H65   1.082   1_556  S
N66          N67   1.324       .  A
N66          C70   1.340       .  A
N67          C68   1.354       .  A
C68          C69   1.393       .  A
C68          H71   1.082       .  S
C69          C70   1.375       .  A
C69         C261   1.479       .  S
C70          H72   1.082       .  S
N73          C78   1.356       .  A
N73          C77   1.354       .  A
N73         H105   1.036   1_565  S
N74          C81   1.353       .  A
N74          C82   1.355       .  A
N75          C80   1.355       .  A
N75          C79   1.357       .  A
N75         H106   1.037       .  S
N76          C83   1.355       .  A
N76          C84   1.353       .  A
C77          C85   1.389       .  A
C77          C93   1.419   1_565  A
C78          C94   1.418       .  A
C78          C86   1.386       .  A
C79          C87   1.388       .  A
C79          C96   1.422       .  A
C80          C95   1.418       .  A
C80          C88   1.387       .  A
C81          C93   1.417       .  A
C81          C89   1.387       .  A
C82          C96   1.419       .  A
C82          C90   1.387       .  A
C83          C91   1.386       .  A
C83          C94   1.416       .  A
C84          C92   1.388       .  A
C84          C95   1.416   1_565  A
C85          C86   1.375       .  A
C85          H97   1.082       .  S
C86          H98   1.082       .  S
C87          C88   1.377       .  A
C87          H99   1.082       .  S
C88         H100   1.082       .  S
C89          C90   1.373       .  A
C89         H101   1.082       .  S
C90         H102   1.082       .  S
C91          C92   1.373       .  A
C91         H103   1.082       .  S
C92         H104   1.082       .  S
C93         C253   1.456       .  S
C94         C268   1.493       .  S
C95         C252   1.456       .  S
C96         C246   1.495       .  S
N107        C112   1.354       .  A
N107        C111   1.355       .  A
N107        H139   1.033       .  S
N108        C115   1.354       .  A
N108        C116   1.353       .  A
N109        C114   1.357       .  A
N109        C113   1.355       .  A
N109        H140   1.035       .  S
N110        C117   1.354       .  A
N110        C118   1.354       .  A
C111        C119   1.387       .  A
C111        C127   1.418   1_554  A
C112        C128   1.418       .  A
C112        C120   1.388       .  A
C113        C121   1.387       .  A
C113        C130   1.418   1_565  A
C114        C129   1.420       .  A
C114        C122   1.387       .  A
C115        C127   1.417       .  A
C115        C123   1.387       .  A
C116        C130   1.415       .  A
C116        C124   1.387       .  A
C117        C125   1.387       .  A
C117        C128   1.417   1_565  A
C118        C126   1.386       .  A
C118        C129   1.418   1_554  A
C119        C120   1.378       .  A
C119        H131   1.082       .  S
C120        H132   1.082       .  S
C121        C122   1.375       .  A
C121        H133   1.082       .  S
C122        H134   1.082       .  S
C123        C124   1.373       .  A
C123        H135   1.082       .  S
C124        H136   1.082       .  S
C125        C126   1.372       .  A
C125        H137   1.082       .  S
C126        H138   1.082       .  S
C127        C281   1.488       .  S
C128        C249   1.456       .  S
C129        C258   1.496       .  S
C130        C256   1.455       .  S
N141        N142   1.324       .  A
N141        C145   1.354       .  A
N141       Cu149   2.114       .  S
N142        C143   1.342       .  A
N142       Cu148   2.070       .  S
C143        C144   1.378       .  A
C143        H146   1.082       .  S
C144        C145   1.392       .  A
C144        C241   1.482       .  S
C145        H147   1.082       .  S
Cu148       N151   2.069       .  S
Cu149       N159   2.115       .  S
Cu150       N152   2.065       .  S
Cu150       N158   2.066       .  S
N151        N152   1.321       .  A
N151        C155   1.346       .  A
N152        C153   1.345       .  A
C153        C154   1.379       .  A
C153        H156   1.082       .  S
C154        C155   1.381       .  A
C154        C266   1.436   1_455  S
C155        H157   1.082   1_455  S
N158        N159   1.324       .  A
N158        C162   1.343       .  A
N159        C160   1.353       .  A
C160        C161   1.392       .  A
C160        H163   1.082       .  S
C161        C162   1.383       .  A
C161        C245   1.489       .  S
C162        H164   1.081       .  S
N165        C170   1.354       .  A
N165        C169   1.353       .  A
N165        H197   1.037       .  S
N166        C173   1.353       .  A
N166        C174   1.353       .  A
N167        C172   1.355       .  A
N167        C171   1.357       .  A
N167        H198   1.037       .  S
N168        C175   1.355       .  A
N168        C176   1.352       .  A
C169        C177   1.388       .  A
C169        C185   1.415       .  A
C170        C186   1.414       .  A
C170        C178   1.386       .  A
C171        C179   1.387       .  A
C171        C188   1.420       .  A
C172        C187   1.418   1_455  A
C172        C180   1.388       .  A
C173        C185   1.415   1_455  A
C173        C181   1.387       .  A
C174        C188   1.417       .  A
C174        C182   1.386       .  A
C175        C183   1.385       .  A
C175        C186   1.416       .  A
C176        C184   1.388       .  A
C176        C187   1.415       .  A
C177        C178   1.376       .  A
C177        H189   1.082       .  S
C178        H190   1.083       .  S
C179        C180   1.376       .  A
C179        H191   1.082       .  S
C180        H192   1.082       .  S
C181        C182   1.374       .  A
C181        H193   1.082       .  S
C182        H194   1.082       .  S
C183        C184   1.374       .  A
C183        H195   1.082       .  S
C184        H196   1.082       .  S
C185        C240   1.453       .  S
C186        C271   1.489       .  S
C187        C236   1.454       .  S
C188        C242   1.497       .  S
N199        C204   1.353       .  A
N199        C203   1.356       .  A
N199        H231   1.035       .  S
N200        C207   1.354       .  A
N200        C208   1.352       .  A
N201        C206   1.355       .  A
N201        C205   1.355       .  A
N201        H232   1.037       .  S
N202        C209   1.353       .  A
N202        C210   1.354       .  A
C203        C211   1.387       .  A
C203        C219   1.419   1_556  A
C204        C220   1.418       .  A
C204        C212   1.388       .  A
C205        C213   1.388       .  A
C205        C222   1.416   1_455  A
C206        C221   1.418       .  A
C206        C214   1.387       .  A
C207        C219   1.417       .  A
C207        C215   1.387       .  A
C208        C222   1.414       .  A
C208        C216   1.387       .  A
C209        C217   1.387       .  A
C209        C220   1.417   1_455  A
C210        C218   1.386       .  A
C210        C221   1.417   1_556  A
C211        C212   1.376       .  A
C211        H223   1.082       .  S
C212        H224   1.082       .  S
C213        C214   1.376       .  A
C213        H225   1.082       .  S
C214        H226   1.082       .  S
C215        C216   1.373       .  A
C215        H227   1.082       .  S
C216        H228   1.082       .  S
C217        C218   1.373       .  A
C217        H229   1.082       .  S
C218        H230   1.082       .  S
C219        C278   1.490       .  S
C220        C237   1.454       .  S
C221        C262   1.494       .  S
C222        C233   1.454       .  S
C233        C234   1.208       .  T
C234        C235   1.415       .  S
C235        C236   1.208       .  T
C237        C238   1.208       .  T
C238        C239   1.414       .  S
C239        C240   1.208       .  T
C241        C242   1.344       .  D
C241        H243   1.087       .  S
C242        H244   1.086       .  S
C245        C246   1.350       .  D
C245        H247   1.086       .  S
C246        H248   1.085       .  S
C249        C250   1.209       .  T
C250        C251   1.417       .  S
C251        C252   1.209       .  T
C253        C254   1.209       .  T
C254        C255   1.416       .  S
C255        C256   1.209       .  T
C257        C258   1.343   1_554  D
C257        H259   1.087       .  S
C258        H260   1.086       .  S
C261        C262   1.341   1_556  D
C261        H263   1.087       .  S
C262        H264   1.086       .  S
C265        C266   1.205   1_565  T
C267        C268   1.348       .  D
C267        H269   1.086       .  S
C268        H270   1.086       .  S
C271        C272   1.347       .  D
C271        H273   1.085       .  S
C272        H274   1.086       .  S
C275        C276   1.204       .  T
C277        C278   1.349   1_556  D
C277        H279   1.086       .  S
C278        H280   1.084       .  S
C281        C282   1.348       .  D
C281        H283   1.084   1_556  S
C282        H284   1.086       .  S
