geometry optimzed in LAMMPS
_audit_creation_date              2020-12-01 
_audit_creation_method            'lammps2cif' 
_symmetry_space_group_name_H-M    'P1' 
_symmetry_Int_Tables_number       1 
_symmetry_cell_setting            triclinic 
loop_ 
_symmetry_equiv_pos_as_xyz 
  x,y,z 
_cell_length_a                    32.35812607 
_cell_length_b                    32.45293156621058 
_cell_length_c                    23.65180138615962 
_cell_angle_alpha                 90.51019154138616 
_cell_angle_beta                  89.21977729367839 
_cell_angle_gamma                 125.34871253707499 
loop_ 
_atom_site_label 
_atom_site_type_symbol 
_atom_site_fract_x 
_atom_site_fract_y 
_atom_site_fract_z 
_atom_site_charge 
O1          O  0.49218820  0.54720621  0.31578428    -0.71200
O2          O  0.50763475  0.47067192  0.19296017    -0.72200
O3          O  0.50676387  0.46942903  0.31560866    -0.60800
O4          O  0.49341668  0.54868180  0.19628607    -0.69200
O5          O  0.57686381  0.60571573  0.19706721    -0.68700
O6          O  0.59022219  0.52605797  0.31361069    -0.60000
O7          O  0.59097505  0.52792659  0.19328108    -0.72500
O8          O  0.57574052  0.60339360  0.31783273    -0.71300
Cu9        Cu  0.49705152  0.50679327  0.25515730     1.04600
Cu10       Cu  0.58630300  0.56768152  0.25544207     1.04300
C11         C  0.53153856  0.58692054  0.33660308     0.95000
C12         C  0.55158340  0.48826529  0.17231650     0.94200
C13         C  0.55070101  0.48635640  0.33463773     0.86300
C14         C  0.53333701  0.58952511  0.17765660     0.92600
C15         C  0.91302672  0.53884202  0.45873760     0.04900
C16         C  0.86024606  0.50340955  0.45621541    -0.11300
C17         C  0.82777344  0.47912746  0.99607251     0.02400
C18         C  0.85139324  0.48693418  0.04824433    -0.09800
C19         C  0.90378526  0.52291164  0.05324191     0.04900
C20         C  0.93753552  0.54950012  0.51061863    -0.09200
H21         H  0.84100583  0.49500465  0.41614729     0.10500
H22         H  0.82905829  0.46495302  0.08477769     0.08000
H23         H  0.97846377  0.57551618  0.51172884     0.07800
C24         C  0.61180916  0.45880025  0.45189371     0.04900
C25         C  0.59571325  0.46754819  0.50339914    -0.11300
C26         C  0.60911702  0.45953925  0.04820926     0.02400
C27         C  0.64293935  0.44586717  0.04385386    -0.09800
C28         C  0.66241418  0.43895119  0.50378743     0.04900
C29         C  0.64494275  0.44427382  0.45256900    -0.09200
H30         H  0.57183101  0.48092690  0.50306034     0.10500
H31         H  0.65916759  0.44236415  0.08176495     0.08000
H32         H  0.65780379  0.43782338  0.41306664     0.07800
C33         C  0.69066915  0.42144451  0.98758636     0.82000
N34         N  0.74158354  0.45646525  0.98989679    -0.76300
C35         C  0.77304841  0.44153332  0.99132503     0.84400
N36         N  0.75357044  0.39159217  0.99116924    -0.76300
C37         C  0.70273388  0.35661583  0.98851725     0.84500
N38         N  0.67132733  0.37155997  0.98703980    -0.78000
C39         C  0.64780055  0.22578540  0.04346863     0.04900
C40         C  0.67132739  0.27803093  0.04179949    -0.11300
C41         C  0.68144862  0.30274811  0.98982855     0.02400
C42         C  0.67214460  0.27728771  0.44601267    -0.09800
C43         C  0.64769074  0.22488860  0.44397627     0.04900
C44         C  0.63503098  0.19848492  0.99254255    -0.09200
H45         H  0.68128467  0.29935082  0.08087802     0.10500
H46         H  0.68191561  0.29858371  0.40709162     0.08000
H47         H  0.61845666  0.15837139  0.99356744     0.07800
O48         O  0.61392947  0.03664834  0.30258975    -0.71200
O49         O  0.63094811  0.13299816  0.18268186    -0.72200
O50         O  0.63059473  0.13219522  0.30332789    -0.60800
O51         O  0.61423688  0.03748289  0.18017375    -0.69200
O52         O  0.53110883  0.99995014  0.18215719    -0.68700
O53         O  0.54731962  0.09387204  0.30532721    -0.60000
O54         O  0.54775644  0.09514678  0.18329857    -0.72500
O55         O  0.53073312  0.99863006  0.30226390    -0.71300
Cu56       Cu  0.62535598  0.08610012  0.24216752     1.04600
Cu57       Cu  0.53640592  0.04571972  0.24329611     1.04300
C58         C  0.56970723  0.00322342  0.32222824     0.95000
C59         C  0.59177959  0.12822040  0.16301274     0.94200
C60         C  0.59132254  0.12694027  0.32476313     0.86300
C61         C  0.57008809  0.00458355  0.16084397     0.92600
O62         O  0.02997829  0.61523208  0.19698182    -0.71200
O63         O  0.11569549  0.62318577  0.32242262    -0.72200
O64         O  0.12993589  0.64183126  0.20508900    -0.60800
O65         O  0.01541164  0.59603212  0.31509816    -0.69200
O66         O  0.98632418  0.51613642  0.29839250    -0.68700
O67         O  0.10232041  0.56204268  0.19105023    -0.60000
O68         O  0.08581860  0.54263896  0.30899924    -0.72500
O69         O  0.00165252  0.53531136  0.18180202    -0.71300
Cu70       Cu  0.07374108  0.62188148  0.26041836     1.04600
Cu71       Cu  0.04310612  0.53626505  0.24440935     1.04300
C72         C  0.00201548  0.57385036  0.16991401     0.95000
C73         C  0.11400362  0.58418574  0.33574785     0.94200
C74         C  0.13436598  0.60917937  0.18101971     0.86300
C75         C  0.98289882  0.54878137  0.32410309     0.92600
C76         C  0.47274929  0.62495528  0.44738902     0.04900
C77         C  0.45026878  0.65106589  0.44766766    -0.11300
C78         C  0.44981506  0.66567704  0.00471438     0.02400
C79         C  0.45383073  0.64755163  0.05644332    -0.09800
C80         C  0.48305720  0.62855454  0.06020700     0.04900
C81         C  0.50679839  0.62610443  0.01146097    -0.09200
H82         H  0.44474999  0.66393458  0.40818754     0.10500
H83         H  0.43568527  0.64981775  0.09403710     0.08000
H84         H  0.52774042  0.60950674  0.01366622     0.07800
C85         C  0.42447777  0.69123011  0.00288737     0.82000
N86         N  0.37334004  0.66468642  0.00897236    -0.76300
C87         C  0.35058092  0.68914492  0.00871098     0.84400
N88         N  0.37915841  0.74024117  0.00325893    -0.76300
C89         C  0.43032514  0.76678661  0.99814455     0.84500
N90         N  0.45280546  0.74220458  0.99764900    -0.78000
C91         C  0.21032451  0.63341936  0.45401852     0.04900
C92         C  0.26323314  0.66349915  0.45591463    -0.11300
C93         C  0.29506480  0.66018449  0.00996371     0.02400
C94         C  0.26748111  0.63935979  0.06064447    -0.09800
C95         C  0.21439671  0.61195212  0.06053048     0.04900
C96         C  0.18915572  0.60406845  0.00975140    -0.09200
H97         H  0.28521160  0.68278068  0.41806901     0.10500
H98         H  0.28716532  0.64552736  0.09992780     0.08000
H99         H  0.14826965  0.58380860  0.01028451     0.07800
C100        C  0.50933969  0.90267994  0.04537201     0.04900
C101        C  0.47671624  0.84981624  0.04642265    -0.11300
C102        C  0.46182197  0.82206260  0.99603156     0.02400
C103        C  0.47518439  0.84883516  0.43886890    -0.09800
C104        C  0.50867751  0.90177562  0.43815900     0.04900
C105        C  0.52678472  0.92778586  0.99302554    -0.09200
H106        H  0.46289177  0.83019687  0.08655790     0.10500
H107        H  0.46139986  0.82799951  0.39947378     0.08000
H108        H  0.54981223  0.96869929  0.99185664     0.07800
C109        C  0.14349273  0.58648167  0.38364218    -0.14700
C110        C  0.18461035  0.63044034  0.40173282    -0.29900
H111        H  0.13084287  0.55144462  0.40499518     0.14300
H112        H  0.19982108  0.66487713  0.37768886     0.14900
C113        C  0.17590662  0.62674889  0.13967450    -0.14700
C114        C  0.18417587  0.59534705  0.11318224    -0.29900
H115        H  0.19778149  0.66621204  0.12702020     0.14300
H116        H  0.16135559  0.55537386  0.12344832     0.14900
C117        C  0.56424149  0.97345512  0.11154870    -0.14700
C118        C  0.51908766  0.93087713  0.09877597    -0.29900
H119        H  0.59688892  0.98664682  0.08419429     0.14300
H120        H  0.48761518  0.91603395  0.12850237     0.16600
C121        C  0.56389880  0.97183360  0.37077567    -0.14700
C122        C  0.51897915  0.92879164  0.38390254    -0.29900
H123        H  0.59629953  0.98570038  0.39790071     0.14300
H124        H  0.48779747  0.91333608  0.35445522     0.14900
C125        C  0.59616322  0.15688232  0.37474125    -0.14700
C126        C  0.64043003  0.19978956  0.38890659    -0.29900
H127        H  0.56316917  0.14208921  0.40206112     0.14300
H128        H  0.67256800  0.21664895  0.35986887     0.14900
C129        C  0.59664838  0.15857033  0.11390424    -0.14700
C130        C  0.64118358  0.20075883  0.09811686    -0.29900
H131        H  0.56330942  0.14448641  0.08831146     0.14300
H132        H  0.67391453  0.21700635  0.12534755     0.14900
C133        C  0.94187686  0.53084517  0.36605409    -0.14700
C134        C  0.94466144  0.56094074  0.40731942    -0.29900
H135        H  0.91234336  0.49049142  0.36782020     0.14300
H136        H  0.97690575  0.60033827  0.40868864     0.14900
C137        C  0.92943030  0.52721166  0.10633376    -0.14700
C138        C  0.97114046  0.57127210  0.12339638    -0.29900
H139        H  0.91480353  0.49306816  0.13074764     0.14300
H140        H  0.98350688  0.60620763  0.10201615     0.14900
C141        C  0.60125607  0.47515671  0.10407445    -0.14700
C142        C  0.55632909  0.46442015  0.12145707    -0.29900
H143        H  0.63396380  0.49701397  0.13137297     0.14300
H144        H  0.52279498  0.43976391  0.09614168     0.14900
C145        C  0.55593968  0.46217583  0.38390248    -0.14700
C146        C  0.60114688  0.47224592  0.39714027    -0.29900
H147        H  0.52340457  0.43889259  0.41169054     0.14300
H148        H  0.63252528  0.49269736  0.36717016     0.14900
C149        C  0.48356504  0.60982960  0.39327150    -0.14700
C150        C  0.52605079  0.61235101  0.38481006    -0.29900
H151        H  0.45492519  0.59430680  0.36059096     0.14300
H152        H  0.55642966  0.63137736  0.41544816     0.14900
C153        C  0.53027714  0.61707061  0.13090476    -0.14700
C154        C  0.48638210  0.60830963  0.11425609    -0.29900
H155        H  0.56494611  0.64351975  0.10740943     0.14300
H156        H  0.45214903  0.58476540  0.13959234     0.14900
O157        O  0.46820643  0.53521005  0.80363293    -0.71200
O158        O  0.50154054  0.46622106  0.68968942    -0.72200
O159        O  0.49474183  0.46594623  0.81190459    -0.60800
O160        O  0.47629169  0.53600355  0.68460843    -0.69200
O161        O  0.55805701  0.59896432  0.68924565    -0.68700
O162        O  0.57643395  0.52912671  0.81431872    -0.60000
O163        O  0.58317461  0.52937885  0.69404603    -0.72500
O164        O  0.54966400  0.59848065  0.81006510    -0.71300
Cu165      Cu  0.48238167  0.49847665  0.74745481     1.04600
Cu166      Cu  0.56965506  0.56617023  0.75224974     1.04300
C167        C  0.50334154  0.57751760  0.82478954     0.95000
C168        C  0.54710106  0.48770148  0.67214689     0.94200
C169        C  0.53867535  0.48701919  0.83350222     0.86300
C170        C  0.51477601  0.57831493  0.66657022     0.92600
C171        C  0.90960796  0.54039764  0.95271232     0.04900
C172        C  0.85698728  0.50537534  0.94808736    -0.11300
C173        C  0.83258793  0.47783433  0.50529920     0.02400
C174        C  0.85781163  0.48674979  0.55646408    -0.09800
C175        C  0.91032264  0.52284705  0.55950054     0.04900
C176        C  0.93247026  0.55026228  0.00541956    -0.09200
H177        H  0.83920139  0.49730571  0.90711236     0.10500
H178        H  0.83655766  0.46552654  0.59386349     0.08000
H179        H  0.97338536  0.57588039  0.00796464     0.07800
C180        C  0.60386846  0.45806878  0.94507926     0.04900
C181        C  0.58881304  0.46467975  0.99861091    -0.11300
C182        C  0.61450669  0.46386428  0.55510323     0.02400
C183        C  0.64814951  0.44981699  0.55486955    -0.09800
C184        C  0.65634107  0.43708937  0.99091437     0.04900
C185        C  0.63749528  0.44399171  0.94168702    -0.09200
H186        H  0.56486530  0.47793138  0.00149879     0.10500
H187        H  0.66309639  0.44719544  0.59437313     0.08000
H188        H  0.64968385  0.43924260  0.90071665     0.07800
C189        C  0.69579235  0.42225569  0.50347805     0.82000
N190        N  0.74683621  0.45658679  0.50416144    -0.76300
C191        C  0.77758340  0.44078475  0.50313864     0.84400
N192        N  0.75724138  0.39062077  0.50158080    -0.76300
C193        C  0.70618673  0.35635578  0.50025080     0.84500
N194        N  0.67554401  0.37221606  0.50114754    -0.78000
C195        C  0.64849354  0.22282550  0.54704086     0.04900
C196        C  0.67311114  0.27523013  0.54847128    -0.11300
C197        C  0.68383245  0.30225831  0.49818140     0.02400
C198        C  0.67060195  0.27576116  0.93922085    -0.09800
C199        C  0.64742206  0.22358730  0.94028668     0.04900
C200        C  0.63496324  0.19757114  0.49471341    -0.09200
H201        H  0.68354188  0.29491277  0.58870529     0.10500
H202        H  0.68000826  0.29530670  0.89907964     0.08000
H203        H  0.61757864  0.15729086  0.49336625     0.07800
O204        O  0.61445533  0.03178382  0.80339703    -0.71200
O205        O  0.63083398  0.12710488  0.68300518    -0.72200
O206        O  0.63094847  0.12715988  0.80350340    -0.60800
O207        O  0.61402068  0.03169021  0.68086945    -0.69200
O208        O  0.53096811  0.99451009  0.68341433    -0.68700
O209        O  0.54770182  0.08907191  0.80553270    -0.60000
O210        O  0.54767332  0.08948110  0.68375789    -0.72500
O211        O  0.53128791  0.99404204  0.80366983    -0.71300
Cu212      Cu  0.62549732  0.08065806  0.74265778     1.04600
Cu213      Cu  0.53658085  0.04052977  0.74415514     1.04300
C214        C  0.57036455  0.99883003  0.82362990     0.95000
C215        C  0.59170611  0.12245839  0.66345376     0.94200
C216        C  0.59175246  0.12223577  0.82470716     0.86300
C217        C  0.56976240  0.99912318  0.66156776     0.92600
O218        O  0.03891142  0.61423785  0.70201196    -0.71200
O219        O  0.11899343  0.61751290  0.83186580    -0.72200
O220        O  0.13740687  0.63791956  0.71553103    -0.60800
O221        O  0.01991490  0.59353387  0.81927257    -0.69200
O222        O  0.98991604  0.51322438  0.80377049    -0.68700
O223        O  0.10638355  0.55754106  0.69860847    -0.60000
O224        O  0.08841043  0.53700251  0.81666542    -0.72500
O225        O  0.00739716  0.53337297  0.68786098    -0.71300
Cu226      Cu  0.07985493  0.61861179  0.76782418     1.04600
Cu227      Cu  0.04710090  0.53249926  0.75116887     1.04300
C228        C  0.01000532  0.57296460  0.67497677     0.95000
C229        C  0.11658365  0.57797225  0.84446964     0.94200
C230        C  0.13996237  0.60463792  0.69007134     0.86300
C231        C  0.98633460  0.54642024  0.82767336     0.92600
C232        C  0.50063003  0.64134718  0.95903731     0.04900
C233        C  0.47271008  0.66201049  0.95581220    -0.11300
C234        C  0.43447386  0.66022388  0.49879575     0.02400
C235        C  0.43935630  0.64160708  0.54960324    -0.09800
C236        C  0.46268528  0.61633256  0.54984627     0.04900
C237        C  0.47982741  0.60858108  0.49873434    -0.09200
H238        H  0.46869239  0.67497242  0.91554465     0.10500
H239        H  0.42611217  0.64780009  0.58894760     0.08000
H240        H  0.49595911  0.58716827  0.49863106     0.07800
C241        C  0.41319401  0.68950563  0.49907364     0.82000
N242        N  0.36257433  0.66593610  0.50557556    -0.76300
C243        C  0.34281321  0.69310929  0.50464447     0.84400
N244        N  0.37378900  0.74398473  0.49766604    -0.76300
C245        C  0.42454243  0.76763146  0.49187155     0.84500
N246        N  0.44416376  0.74034259  0.49233655    -0.78000
C247        C  0.21643034  0.62549444  0.95931306     0.04900
C248        C  0.26945168  0.65422427  0.95980758    -0.11300
C249        C  0.28784786  0.66678850  0.50576449     0.02400
C250        C  0.25950470  0.64244046  0.55498258    -0.09800
C251        C  0.20640217  0.61369358  0.55363474     0.04900
C252        C  0.18207845  0.60817298  0.50284878    -0.09200
H253        H  0.29078412  0.67147367  0.92103540     0.10500
H254        H  0.27855297  0.64589892  0.59392859     0.08000
H255        H  0.14106267  0.58638465  0.50213992     0.07800
C256        C  0.50778343  0.90217638  0.54149180     0.04900
C257        C  0.47406717  0.84951589  0.54129380    -0.11300
C258        C  0.45859799  0.82277908  0.49034560     0.02400
C259        C  0.47785729  0.84721724  0.94402680    -0.09800
C260        C  0.51016475  0.90013743  0.94210388     0.04900
C261        C  0.52584357  0.92832966  0.48980273    -0.09200
H262        H  0.45951938  0.82922848  0.58099152     0.10500
H263        H  0.46477947  0.82561909  0.90506687     0.08000
H264        H  0.54969919  0.96926493  0.48985190     0.07800
C265        C  0.14568747  0.57923765  0.89237876    -0.14700
C266        C  0.18989613  0.62196146  0.90726065    -0.29900
H267        H  0.13064019  0.54454684  0.91579811     0.14300
H268        H  0.20699834  0.65531767  0.88071894     0.14900
C269        C  0.18086551  0.62143344  0.64838730    -0.14700
C270        C  0.17498734  0.59168118  0.60503176    -0.29900
H271        H  0.21257355  0.66111321  0.64814889     0.14300
H272        H  0.14055894  0.55355881  0.60222767     0.14900
C273        C  0.56352363  0.96864965  0.61142451    -0.14700
C274        C  0.51743671  0.92913501  0.59565544    -0.29900
H275        H  0.59659133  0.98026840  0.58555188     0.14300
H276        H  0.48501609  0.91570924  0.62353543     0.16600
C277        C  0.56489238  0.96839544  0.87295466    -0.14700
C278        C  0.51997429  0.92586420  0.88711686    -0.29900
H279        H  0.59749381  0.98269174  0.89988849     0.14300
H280        H  0.48850422  0.90988705  0.85800897     0.14900
C281        C  0.59666495  0.15293325  0.87387649    -0.14700
C282        C  0.64069969  0.19650119  0.88690046    -0.29900
H283        H  0.56367742  0.13864290  0.90106314     0.14300
H284        H  0.67272935  0.21287829  0.85775724     0.14900
C285        C  0.59683441  0.15338683  0.61492265    -0.14700
C286        C  0.64162162  0.19558995  0.59991410    -0.29900
H287        H  0.56350657  0.14030083  0.58973518     0.14300
H288        H  0.67427317  0.21078388  0.62704394     0.14900
C289        C  0.94360420  0.52935953  0.86659327    -0.14700
C290        C  0.94285771  0.56101995  0.90260639    -0.29900
H291        H  0.91507010  0.48887715  0.87054065     0.14300
H292        H  0.97371421  0.60100056  0.90228337     0.14900
C293        C  0.93709275  0.52774123  0.61193849    -0.14700
C294        C  0.98014831  0.57127936  0.62768828    -0.29900
H295        H  0.92149070  0.49411825  0.63769305     0.14300
H296        H  0.99390469  0.60615035  0.60532216     0.14900
C297        C  0.60378915  0.47996840  0.60886004    -0.14700
C298        C  0.55696803  0.46555043  0.62348377    -0.29900
H299        H  0.63531091  0.50447348  0.63683392     0.14300
H300        H  0.52506289  0.43832771  0.59732406     0.14900
C301        C  0.54596658  0.46383399  0.88240418    -0.14700
C302        C  0.59151822  0.47331672  0.89262893    -0.29900
H303        H  0.51423160  0.43999335  0.91095940     0.14300
H304        H  0.62167478  0.49384895  0.86128037     0.14900
C305        C  0.52063152  0.63146681  0.90809884    -0.14700
C306        C  0.48901315  0.60072385  0.86740254    -0.29900
H307        H  0.55885267  0.64111179  0.90925110     0.14300
H308        H  0.44935936  0.58682915  0.86998472     0.14900
C309        C  0.51049540  0.60282880  0.61734271    -0.14700
C310        C  0.46684391  0.59566754  0.60305749    -0.29900
H311        H  0.54431767  0.62729835  0.59164754     0.14300
H312        H  0.43393347  0.57483527  0.63092685     0.14900
loop_ 
_geom_bond_atom_site_label_1 
_geom_bond_atom_site_label_2 
_geom_bond_distance 
_geom_bond_site_symmetry_2 
_ccdc_geom_bond_type 
O1           Cu9   2.000       .  S
O1           C11   1.277       .  A
O2           Cu9   2.019       .  S
O2           C12   1.278       .  A
O3           Cu9   2.024       .  S
O3           C13   1.279       .  A
O4           Cu9   2.006       .  S
O4           C14   1.278       .  A
O5          Cu10   2.000       .  S
O5           C14   1.276       .  A
O6          Cu10   1.992       .  S
O6           C13   1.277       .  A
O7          Cu10   2.009       .  S
O7           C12   1.279       .  A
O8          Cu10   2.013       .  S
O8           C11   1.277       .  A
Cu9         Cu10   2.375       .  S
C11         C150   1.470       .  S
C12         C142   1.478       .  S
C13         C145   1.476       .  S
C14         C153   1.468       .  S
C15         C134   1.474       .  S
C15          C16   1.404       .  A
C15          C20   1.399       .  A
C16         C173   1.402       .  A
C16          H21   1.084       .  S
C17          C18   1.403   1_556  A
C17         C172   1.401       .  A
C17          C35   1.463       .  S
C18          C19   1.401       .  A
C18          H22   1.084       .  S
C19         C137   1.475       .  S
C19         C176   1.402       .  A
C20         C175   1.403       .  A
C20          H23   1.084       .  S
C24         C146   1.477       .  S
C24          C25   1.408       .  A
C24          C29   1.399       .  A
C25         C182   1.409       .  A
C25          H30   1.084       .  S
C26         C141   1.482       .  S
C26          C27   1.401       .  A
C26         C181   1.410   1_554  A
C27         C184   1.400   1_554  A
C27          H31   1.085       .  S
C28          C29   1.397       .  A
C28         C183   1.401       .  A
C28         C189   1.462       .  S
C29          H32   1.085       .  S
C33         C184   1.465       .  S
C33          N34   1.358       .  A
C33          N38   1.357       .  A
N34          C35   1.358       .  A
C35          N36   1.357       .  A
N36          C37   1.356       .  A
C37          C41   1.462       .  S
C37          N38   1.357       .  A
C39         C130   1.479       .  S
C39          C40   1.401       .  A
C39          C44   1.406   1_554  A
C40          C41   1.402   1_554  A
C40          H45   1.084       .  S
C41         C198   1.400       .  A
C42          C43   1.401       .  A
C42         C197   1.401       .  A
C42          H46   1.084       .  S
C43         C126   1.478       .  S
C43         C200   1.407       .  A
C44         C199   1.407       .  A
C44          H47   1.084       .  S
O48         Cu56   2.023       .  S
O48          C58   1.279       .  A
O49         Cu56   2.010       .  S
O49          C59   1.278       .  A
O50         Cu56   2.008       .  S
O50          C60   1.278       .  A
O51         Cu56   2.021       .  S
O51          C61   1.278       .  A
O52         Cu57   2.000   1_565  S
O52          C61   1.278   1_565  A
O53         Cu57   2.013       .  S
O53          C60   1.277       .  A
O54         Cu57   2.016       .  S
O54          C59   1.278       .  A
O55         Cu57   2.005   1_565  S
O55          C58   1.278   1_565  A
Cu56        Cu57   2.374       .  S
C58         C121   1.478   1_545  S
C59         C129   1.476       .  S
C60         C125   1.475       .  S
C61         C117   1.476   1_545  S
O62         Cu70   2.000       .  S
O62          C72   1.275       .  A
O63         Cu70   1.996       .  S
O63          C73   1.277       .  A
O64         Cu70   2.007       .  S
O64          C74   1.277       .  A
O65         Cu70   2.015       .  S
O65          C75   1.279   1_455  A
O66         Cu71   1.999   1_655  S
O66          C75   1.276       .  A
O67         Cu71   2.015       .  S
O67          C74   1.279       .  A
O68         Cu71   2.002       .  S
O68          C73   1.276       .  A
O69         Cu71   2.000       .  S
O69          C72   1.278       .  A
Cu70        Cu71   2.377       .  S
C72         C138   1.465   1_455  S
C73         C109   1.465       .  S
C74         C113   1.475       .  S
C75         C133   1.472       .  S
C76         C149   1.476       .  S
C76          C77   1.400       .  A
C76         C237   1.403       .  A
C77         C234   1.402       .  A
C77          H82   1.084       .  S
C78          C79   1.402       .  A
C78         C233   1.406   1_554  A
C78          C85   1.466       .  S
C79          C80   1.400       .  A
C79          H83   1.084       .  S
C80         C154   1.476       .  S
C80          C81   1.404       .  A
C81         C232   1.398   1_554  A
C81          H84   1.084       .  S
C85          N86   1.359       .  A
C85          N90   1.356   1_554  A
N86          C87   1.360       .  A
C87          C93   1.469       .  S
C87          N88   1.359       .  A
N88          C89   1.358   1_554  A
C89         C102   1.464       .  S
C89          N90   1.355       .  A
C91         C110   1.471       .  S
C91          C92   1.398       .  A
C91         C252   1.401       .  A
C92         C249   1.400       .  A
C92          H97   1.085       .  S
C93          C94   1.406       .  A
C93         C248   1.403   1_554  A
C94          C95   1.405       .  A
C94          H98   1.084       .  S
C95         C114   1.472       .  S
C95          C96   1.398       .  A
C96         C247   1.401   1_554  A
C96          H99   1.084       .  S
C100        C118   1.479       .  S
C100        C101   1.401       .  A
C100        C105   1.408   1_554  A
C101        C102   1.399   1_554  A
C101        H106   1.085       .  S
C102        C259   1.400       .  A
C103        C104   1.404       .  A
C103        C258   1.400       .  A
C103        H107   1.084       .  S
C104        C122   1.482       .  S
C104        C261   1.410       .  A
C105        C260   1.409       .  A
C105        H108   1.084       .  S
C109        C110   1.340       .  D
C109        H111   1.087       .  S
C110        H112   1.087       .  S
C113        C114   1.343       .  D
C113        H115   1.088       .  S
C114        H116   1.086       .  S
C117        C118   1.343       .  D
C117        H119   1.087       .  S
C118        H120   1.087       .  S
C121        C122   1.344       .  D
C121        H123   1.087       .  S
C122        H124   1.087       .  S
C125        C126   1.342       .  D
C125        H127   1.087       .  S
C126        H128   1.087       .  S
C129        C130   1.342       .  D
C129        H131   1.087       .  S
C130        H132   1.087       .  S
C133        C134   1.341       .  D
C133        H135   1.087       .  S
C134        H136   1.087       .  S
C137        C138   1.342       .  D
C137        H139   1.087       .  S
C138        H140   1.087       .  S
C141        C142   1.343       .  D
C141        H143   1.087       .  S
C142        H144   1.087       .  S
C145        C146   1.342       .  D
C145        H147   1.087       .  S
C146        H148   1.088       .  S
C149        C150   1.341       .  D
C149        H151   1.087       .  S
C150        H152   1.087       .  S
C153        C154   1.341       .  D
C153        H155   1.087       .  S
C154        H156   1.087       .  S
O157       Cu165   1.996       .  S
O157        C167   1.275       .  A
O158       Cu165   2.012       .  S
O158        C168   1.277       .  A
O159       Cu165   2.033       .  S
O159        C169   1.280       .  A
O160       Cu165   2.012       .  S
O160        C170   1.279       .  A
O161       Cu166   2.000       .  S
O161        C170   1.275       .  A
O162       Cu166   1.998       .  S
O162        C169   1.277       .  A
O163       Cu166   2.018       .  S
O163        C168   1.280       .  A
O164       Cu166   2.031       .  S
O164        C167   1.281       .  A
Cu165      Cu166   2.375       .  S
C167        C306   1.475       .  S
C168        C298   1.478       .  S
C169        C301   1.479       .  S
C170        C309   1.468       .  S
C171        C290   1.468       .  S
C171        C172   1.402       .  A
C171        C176   1.396   1_556  A
C172        H177   1.084       .  S
C173        C174   1.401       .  A
C173        C191   1.463       .  S
C174        C175   1.401       .  A
C174        H178   1.084       .  S
C175        C293   1.477       .  S
C176        H179   1.084       .  S
C180        C302   1.482       .  S
C180        C181   1.409       .  A
C180        C185   1.404       .  A
C181        H186   1.083   1_556  S
C182        C297   1.482       .  S
C182        C183   1.402       .  A
C183        H187   1.084       .  S
C184        C185   1.400       .  A
C185        H188   1.084       .  S
C189        N190   1.357       .  A
C189        N194   1.356       .  A
N190        C191   1.358       .  A
C191        N192   1.358       .  A
N192        C193   1.357       .  A
C193        C197   1.462       .  S
C193        N194   1.356       .  A
C195        C286   1.476       .  S
C195        C196   1.400       .  A
C195        C200   1.406       .  A
C196        C197   1.400       .  A
C196        H201   1.084       .  S
C198        C199   1.400       .  A
C198        H202   1.084       .  S
C199        C282   1.477       .  S
C200        H203   1.084       .  S
O204       Cu212   2.019       .  S
O204        C214   1.278   1_545  A
O205       Cu212   2.006       .  S
O205        C215   1.278       .  A
O206       Cu212   2.010       .  S
O206        C216   1.279       .  A
O207       Cu212   2.022       .  S
O207        C217   1.278   1_545  A
O208       Cu213   1.996   1_565  S
O208        C217   1.277       .  A
O209       Cu213   2.009       .  S
O209        C216   1.277       .  A
O210       Cu213   2.015       .  S
O210        C215   1.278       .  A
O211       Cu213   2.005   1_565  S
O211        C214   1.278       .  A
Cu212      Cu213   2.374       .  S
C214        C277   1.477       .  S
C215        C285   1.475       .  S
C216        C281   1.474       .  S
C217        C273   1.476       .  S
O218       Cu226   2.008       .  S
O218        C228   1.276       .  A
O219       Cu226   2.001       .  S
O219        C229   1.277       .  A
O220       Cu226   1.998       .  S
O220        C230   1.275       .  A
O221       Cu226   2.008       .  S
O221        C231   1.279   1_455  A
O222       Cu227   1.994   1_655  S
O222        C231   1.275       .  A
O223       Cu227   2.009       .  S
O223        C230   1.279       .  A
O224       Cu227   2.009       .  S
O224        C229   1.277       .  A
O225       Cu227   1.997       .  S
O225        C228   1.277       .  A
Cu226      Cu227   2.378       .  S
C228        C294   1.468   1_455  S
C229        C265   1.468       .  S
C230        C269   1.470       .  S
C231        C289   1.468       .  S
C232        C305   1.478       .  S
C232        C233   1.406       .  A
C233        H238   1.084       .  S
C234        C235   1.401       .  A
C234        C241   1.461       .  S
C235        C236   1.400       .  A
C235        H239   1.084       .  S
C236        C310   1.475       .  S
C236        C237   1.404       .  A
C237        H240   1.084       .  S
C241        N242   1.355       .  A
C241        N246   1.356       .  A
N242        C243   1.357       .  A
C243        C249   1.461       .  S
C243        N244   1.358       .  A
N244        C245   1.357       .  A
C245        C258   1.462       .  S
C245        N246   1.356       .  A
C247        C266   1.476       .  S
C247        C248   1.401       .  A
C248        H253   1.084       .  S
C249        C250   1.403       .  A
C250        C251   1.404       .  A
C250        H254   1.084       .  S
C251        C270   1.471       .  S
C251        C252   1.398       .  A
C252        H255   1.085       .  S
C256        C274   1.476       .  S
C256        C257   1.398       .  A
C256        C261   1.408       .  A
C257        C258   1.397       .  A
C257        H262   1.085       .  S
C259        C260   1.403       .  A
C259        H263   1.084       .  S
C260        C278   1.480       .  S
C261        H264   1.084       .  S
C265        C266   1.343       .  D
C265        H267   1.087       .  S
C266        H268   1.087       .  S
C269        C270   1.340       .  D
C269        H271   1.087       .  S
C270        H272   1.087       .  S
C273        C274   1.342       .  D
C273        H275   1.087       .  S
C274        H276   1.087       .  S
C277        C278   1.343       .  D
C277        H279   1.087       .  S
C278        H280   1.087       .  S
C281        C282   1.341       .  D
C281        H283   1.087       .  S
C282        H284   1.087       .  S
C285        C286   1.342       .  D
C285        H287   1.087       .  S
C286        H288   1.087       .  S
C289        C290   1.340       .  D
C289        H291   1.088       .  S
C290        H292   1.087       .  S
C293        C294   1.343       .  D
C293        H295   1.087       .  S
C294        H296   1.086       .  S
C297        C298   1.342       .  D
C297        H299   1.087       .  S
C298        H300   1.087       .  S
C301        C302   1.345       .  D
C301        H303   1.086       .  S
C302        H304   1.088       .  S
C305        C306   1.341       .  D
C305        H307   1.087       .  S
C306        H308   1.087       .  S
C309        C310   1.340       .  D
C309        H311   1.087       .  S
C310        H312   1.087       .  S
