geometry optimzed in LAMMPS
_audit_creation_date              2020-11-30 
_audit_creation_method            'lammps2cif' 
_symmetry_space_group_name_H-M    'P1' 
_symmetry_Int_Tables_number       1 
_symmetry_cell_setting            triclinic 
loop_ 
_symmetry_equiv_pos_as_xyz 
  x,y,z 
_cell_length_a                    23.97458785844281 
_cell_length_b                    24.39740974002982 
_cell_length_c                    24.042280282620663 
_cell_angle_alpha                 90.57895368672479 
_cell_angle_beta                  90.3175514761253 
_cell_angle_gamma                 89.98417813410882 
loop_ 
_atom_site_label 
_atom_site_type_symbol 
_atom_site_fract_x 
_atom_site_fract_y 
_atom_site_fract_z 
_atom_site_charge 
O1          O  0.39163260  0.39340539  0.90303755    -0.73570
O2          O  0.44801348  0.42922929  0.83636390    -0.52480
C3          C  0.40621853  0.40042378  0.85217217     0.80160
O4          O  0.40087189  0.60654667  0.08325171    -0.58170
O5          O  0.45080255  0.55691572  0.14650147    -0.51200
C6          C  0.41322234  0.59195600  0.13336044     0.72170
O7          O  0.40119985  0.60301228  0.89300972    -0.72730
O8          O  0.44750799  0.54694732  0.83209044    -0.53290
C9          C  0.41255645  0.58515411  0.84358529     0.78180
O10         O  0.40261971  0.39380482  0.09158011    -0.57870
O11         O  0.45335571  0.44819568  0.15091307    -0.50990
C12         C  0.41574943  0.41225763  0.14045733     0.74770
Zr13       Zr  0.42960837  0.41474922  0.99532302     2.54710
O14         O  0.32841653  0.41078424  0.00176808    -0.78440
O15         O  0.43647693  0.31516186  0.99409597    -0.91860
Zr16       Zr  0.42937718  0.57926145  0.98853031     2.64680
O17         O  0.32781679  0.57927411  0.98638683    -0.96810
O18         O  0.43442663  0.67894890  0.98887279    -0.78870
O19         O  0.42730604  0.49434634  0.93905689    -0.82230
O20         O  0.43024097  0.49931373  0.04417481    -2.16940
O21         O  0.62291126  0.38978648  0.08378875    -0.65620
O22         O  0.57744794  0.44108000  0.14908863    -0.50180
C23         C  0.61232561  0.40344480  0.13418947     0.73150
O24         O  0.62456996  0.59802331  0.89012103    -0.58530
O25         O  0.57404705  0.54380915  0.83027660    -0.50500
C26         C  0.61174735  0.57975967  0.84105897     0.74950
O27         O  0.61983326  0.61541985  0.07958297    -0.69920
O28         O  0.56993353  0.56886512  0.14456380    -0.48600
C29         C  0.60477014  0.60587437  0.13007924     0.76340
O30         O  0.63163688  0.39628903  0.89941691    -0.65250
O31         O  0.57241013  0.43083750  0.83408977    -0.52450
C32         C  0.61559984  0.40320401  0.84901354     0.74720
Zr33       Zr  0.59567584  0.41642835  0.99130928     2.77540
O34         O  0.69718640  0.41284258  0.99490750    -0.96000
O35         O  0.58941750  0.31697766  0.98500881    -0.76820
Zr36       Zr  0.59513077  0.58022124  0.98622518     2.70070
O37         O  0.69654736  0.58221974  0.98989313    -0.78070
O38         O  0.58770661  0.67917913  0.97635883    -0.97150
Zr39       Zr  0.51032019  0.49110561  0.88541343     2.21500
Zr40       Zr  0.51567186  0.50097286  0.09534463     2.11130
O41         O  0.59892947  0.50036033  0.04217168    -2.45840
O42         O  0.59520404  0.49587906  0.93611905    -0.77860
O43         O  0.51430321  0.41574383  0.04705086    -0.70060
O44         O  0.51122279  0.57737188  0.93327870    -2.31010
O45         O  0.51135167  0.41042733  0.93975535    -2.27220
O46         O  0.51338574  0.58232563  0.04132990    -0.71820
H47         H  0.39828823  0.50010227  0.06841896     0.80180
H48         H  0.51094974  0.60736200  0.90735337     0.81270
H49         H  0.63145010  0.50158252  0.06605572     0.83490
H50         H  0.51121468  0.37793944  0.91644934     0.81100
H51         H  0.45713670  0.68796415  0.95593646     0.44140
H52         H  0.56214049  0.69085479  0.00643808     0.43110
H53         H  0.70786890  0.54417013  0.98072951     0.42780
H54         H  0.70792622  0.43697979  0.02653732     0.40720
H55         H  0.55896906  0.30729672  0.01076773     0.43850
H56         H  0.44714855  0.30546577  0.95550990     0.38630
H57         H  0.31577909  0.44766358  0.99036227     0.44750
H58         H  0.31677958  0.55589109  0.01789420     0.41170
H59         H  0.70607363  0.37531538  0.00752722     0.46090
H60         H  0.39742381  0.30243285  0.99729103     0.44810
H61         H  0.31721968  0.61687207  0.99808781     0.44940
H62         H  0.62467760  0.69335693  0.98809217     0.45300
O63         O  0.41591550  0.91013099  0.35983363    -0.73570
O64         O  0.45997945  0.84446802  0.41085750    -0.52480
C65         C  0.42727102  0.86010190  0.37144663     0.80160
O66         O  0.62257865  0.10243563  0.37415000    -0.58170
O67         O  0.56750025  0.16009975  0.42529058    -0.51200
C68         C  0.60457142  0.15051104  0.38827990     0.72170
O69         O  0.62103120  0.91651606  0.35819565    -0.72730
O70         O  0.58124037  0.84839521  0.40916606    -0.53290
C71         C  0.61195572  0.86577843  0.36919451     0.78180
O72         O  0.40888863  0.09214414  0.36978644    -0.57870
O73         O  0.44948863  0.15539181  0.42767953    -0.50990
C74         C  0.41786807  0.14151751  0.38634623     0.74770
Zr75       Zr  0.43406194  0.00057508  0.39882611     2.54710
O76         O  0.42699799  0.00434884  0.29794484    -0.78440
O77         O  0.33303840  0.99764476  0.40813307    -0.91860
Zr78       Zr  0.60015323  0.00667779  0.39782916     2.64680
O79         O  0.60378386  0.01230168  0.29683351    -0.96810
O80         O  0.70144092  0.00661367  0.40626630    -0.78870
O81         O  0.51877268  0.95100246  0.39486086    -0.82230
O82         O  0.51519178  0.05571908  0.39946634    -2.16940
O83         O  0.40839020  0.08609976  0.59983763    -0.65620
O84         O  0.45823510  0.15118103  0.55368034    -0.50180
C85         C  0.42354673  0.13609310  0.59085830     0.73150
O86         O  0.63412850  0.90635431  0.58292216    -0.58530
O87         O  0.58110992  0.84289444  0.53624716    -0.50500
C88         C  0.62022314  0.85686477  0.57042725     0.74950
O89         O  0.62220452  0.08944609  0.59865933    -0.69920
O90         O  0.57730536  0.15375594  0.54646247    -0.48600
C91         C  0.61078583  0.13920954  0.58564943     0.76340
O92         O  0.40889335  0.89899773  0.58667876    -0.65250
O93         O  0.45774620  0.83996253  0.53079137    -0.52450
C94         C  0.42161430  0.85047470  0.56877373     0.74720
Zr95       Zr  0.43417146  0.99404810  0.56397680     2.77540
O96         O  0.43609820  0.98682145  0.66491762    -0.96000
O97         O  0.33273636  0.99415365  0.55933757    -0.76820
Zr98       Zr  0.60090242  0.99821129  0.56220973     2.70070
O99         O  0.60313397  0.99048662  0.66304926    -0.78070
O100        O  0.70204074  0.00441647  0.55608046    -0.97150
Zr101      Zr  0.52011814  0.89468595  0.47511912     2.21500
Zr102      Zr  0.51369876  0.10362902  0.48592962     2.11130
O103        O  0.51625649  0.04809841  0.56681459    -2.45840
O104        O  0.51909418  0.94321378  0.56159143    -0.77860
O105        O  0.43042379  0.05064860  0.48396905    -0.70060
O106        O  0.60305735  0.94887583  0.47682453    -2.31010
O107        O  0.43444334  0.94426408  0.47839784    -2.27220
O108        O  0.60021482  0.05591228  0.48328523    -0.71820
H109        H  0.51421290  0.08039794  0.36834263     0.80180
H110        H  0.63584131  0.92591271  0.47515800     0.81270
H111        H  0.51644500  0.07014113  0.60038678     0.83490
H112        H  0.40285501  0.91974248  0.47664572     0.81100
H113        H  0.71126974  0.96865127  0.41669292     0.44140
H114        H  0.70895626  0.03793531  0.53428602     0.43110
H115        H  0.56602222  0.97564809  0.67266054     0.42780
H116        H  0.46042096  0.01726930  0.67772855     0.40720
H117        H  0.32346953  0.02304287  0.53216781     0.43850
H118        H  0.32465036  0.95964469  0.41946655     0.38630
H119        H  0.46604068  0.00126893  0.28505033     0.44750
H120        H  0.57704845  0.04165742  0.28706897     0.41170
H121        H  0.39816361  0.99772945  0.67677281     0.46090
H122        H  0.31882993  0.99990893  0.36947790     0.44810
H123        H  0.64094263  0.02798744  0.28885886     0.44940
H124        H  0.71444849  0.01401028  0.59430269     0.45300
O125        O  0.92519886  0.62035076  0.38233787    -0.73570
O126        O  0.86015395  0.57973266  0.43741966    -0.52480
C127        C  0.87467484  0.61288843  0.39919969     0.80160
O128        O  0.10306043  0.38735356  0.39290668    -0.58170
O129        O  0.16958730  0.44015533  0.43581370    -0.51200
C130        C  0.15394179  0.40023672  0.40403929     0.72170
O131        O  0.91551140  0.40575069  0.37782776    -0.72730
O132        O  0.85509535  0.46313367  0.42286813    -0.53290
C133        C  0.86639215  0.42511100  0.38748408     0.78110
O134        O  0.11601881  0.61279657  0.38914105    -0.57870
O135        O  0.17602638  0.56194392  0.44193374    -0.50990
C136        C  0.16532599  0.59866833  0.40556075     0.74770
Zr137      Zr  0.01896410  0.58891225  0.41109000     2.54710
O138        O  0.02184183  0.58157941  0.31008153    -0.78440
O139        O  0.02440858  0.68853625  0.40970707    -0.91860
Zr140      Zr  0.01087637  0.42630381  0.40912859     2.64680
O141        O  0.01885327  0.43294829  0.30847917    -0.96810
O142        O  0.00069719  0.32709928  0.40367006    -0.78870
O143        O  0.96107699  0.51032277  0.40781711    -0.82230
O144        O  0.06936614  0.50489140  0.41115936    -2.16940
O145        O  0.10922680  0.62446057  0.59100579    -0.65620
O146        O  0.17379426  0.56527475  0.55542804    -0.50180
C147        C  0.15969266  0.60919476  0.58212931     0.73150
O148        O  0.90975252  0.39947241  0.59610665    -0.58530
O149        O  0.85148941  0.44913438  0.54045023    -0.50500
C150        C  0.86113959  0.41220820  0.57674941     0.74950
O151        O  0.09837339  0.38644971  0.59731908    -0.69920
O152        O  0.16715823  0.43703816  0.55719604    -0.48600
C153        C  0.14987063  0.39750430  0.58777240     0.76340
O154        O  0.92346003  0.60702084  0.61500784    -0.65250
O155        O  0.85759774  0.56790559  0.55849850    -0.52450
C156        C  0.87261300  0.59731494  0.60072234     0.74720
Zr157      Zr  0.01591596  0.58741844  0.57794985     2.77540
O158        O  0.03081932  0.58658131  0.67824771    -0.96000
O159        O  0.00392217  0.68649551  0.57890960    -0.76820
Zr160      Zr  0.00682350  0.42417470  0.57482172     2.70070
O161        O  0.00646737  0.42530897  0.67604341    -0.78070
O162        O  0.99884436  0.32471449  0.56984914    -0.97150
Zr163      Zr  0.90873781  0.51291278  0.49144238     2.21500
Zr164      Zr  0.11963144  0.50195901  0.49732163     2.11130
O165        O  0.06554283  0.50309171  0.58023834    -2.45840
O166        O  0.95805929  0.50865816  0.57695259    -0.77860
O167        O  0.07010019  0.58617497  0.49593034    -0.70060
O168        O  0.95576115  0.42710814  0.49032333    -2.31010
O169        O  0.96465718  0.59318073  0.49370679    -2.27220
O170        O  0.06245559  0.42222661  0.49357258    -0.71820
H171        H  0.09463684  0.50368961  0.38002108     0.80180
H172        H  0.92999895  0.39674384  0.48812458     0.81270
H173        H  0.08933781  0.50164805  0.61274282     0.83490
H174        H  0.94202401  0.62593399  0.49454142     0.81100
H175        H  0.98411503  0.31685408  0.43972317     0.44140
H176        H  0.02819988  0.31303566  0.54344068     0.43110
H177        H  0.00319630  0.46458807  0.68625587     0.42780
H178        H  0.06950417  0.57332601  0.68348581     0.40720
H179        H  0.02107975  0.69869852  0.54376929     0.43850
H180        H  0.99280317  0.70115442  0.43287450     0.38630
H181        H  0.99318205  0.55378091  0.30050439     0.44750
H182        H  0.05778661  0.44463030  0.30192084     0.41170
H183        H  0.03227534  0.62579735  0.68917289     0.46090
H184        H  0.01367635  0.69843578  0.37126516     0.44810
H185        H  0.01753024  0.39447140  0.29503780     0.44940
H186        H  0.01210908  0.31183400  0.60653575     0.45300
C187        C  0.76324918  0.32937828  0.31325524     0.04850
C188        C  0.72651842  0.36231625  0.28232848    -0.11300
C189        C  0.67371396  0.34284031  0.26701077     0.02350
C190        C  0.65737332  0.29011893  0.28260023    -0.09820
C191        C  0.69394962  0.25645709  0.31303528     0.04840
C192        C  0.74742720  0.27578273  0.32677586    -0.09240
H193        H  0.73898150  0.40309072  0.26993731     0.10440
H194        H  0.61640094  0.27518003  0.27067586     0.07970
H195        H  0.77520440  0.25053808  0.35137889     0.07820
C196        C  0.77364576  0.68529586  0.29995783     0.04850
C197        C  0.75461865  0.66992447  0.24674551    -0.11300
C198        C  0.70179360  0.68657309  0.22789094     0.02350
C199        C  0.66959351  0.72223868  0.26113217    -0.09820
C200        C  0.68905287  0.73926564  0.31368979     0.04840
C201        C  0.74055719  0.72019875  0.33307150    -0.09240
H202        H  0.77910746  0.64174017  0.22170074     0.10440
H203        H  0.62892059  0.73559987  0.24677169     0.07970
H204        H  0.75509071  0.73317954  0.37388565     0.07820
C205        C  0.66601479  0.33712495  0.71343367     0.04850
C206        C  0.64346034  0.29609707  0.67899743    -0.11300
C207        C  0.67460812  0.27424926  0.63496192     0.02350
C208        C  0.72803368  0.29450143  0.62444713    -0.09820
C209        C  0.75143737  0.33513039  0.65920330     0.04840
C210        C  0.72072454  0.35565826  0.70420032    -0.09240
H211        H  0.60134207  0.28160382  0.68598235     0.10440
H212        H  0.75142924  0.27864121  0.58933583     0.07970
H213        H  0.73801983  0.38857825  0.72949831     0.07820
C214        C  0.34680414  0.73374709  0.32082881     0.04850
C215        C  0.36357008  0.72127843  0.26624775    -0.11300
C216        C  0.33291575  0.68415100  0.23351281     0.02350
C217        C  0.28400389  0.66082170  0.25461916    -0.09820
C218        C  0.26674180  0.67298252  0.30900438     0.04840
C219        C  0.29885589  0.70894977  0.34220007    -0.09240
H220        H  0.40198539  0.73820753  0.25020009     0.10440
H221        H  0.26069839  0.63153460  0.22949918     0.07970
H222        H  0.28580222  0.71879808  0.38422083     0.07820
C223        C  0.34437562  0.68131558  0.73756589     0.04850
C224        C  0.36022523  0.73312289  0.71814598    -0.11300
C225        C  0.34471898  0.75003110  0.66448378     0.02350
C226        C  0.30968930  0.71613515  0.63174220    -0.09820
C227        C  0.29198357  0.66511627  0.65176123     0.04840
C228        C  0.30988490  0.64786770  0.70413178    -0.09240
H229        H  0.38764257  0.75870919  0.74327913     0.10440
H230        H  0.29675469  0.72909621  0.59066416     0.07970
H231        H  0.29607060  0.60843684  0.71920640     0.07820
C232        C  0.35881014  0.32877551  0.71814715     0.04850
C233        C  0.36896395  0.27558630  0.69829490    -0.11300
C234        C  0.33764571  0.25366391  0.65347301     0.02350
C235        C  0.29473452  0.28557091  0.63013958    -0.09820
C236        C  0.28530958  0.33951555  0.64919266     0.04840
C237        C  0.31752291  0.36079658  0.69299455    -0.09240
H238        H  0.40120840  0.25155509  0.71820443     0.10440
H239        H  0.27085473  0.26967942  0.59512826     0.07970
H240        H  0.31090795  0.40263994  0.70711933     0.07820
C241        C  0.67893512  0.67197722  0.73324792     0.04850
C242        C  0.64946790  0.71482973  0.70806562    -0.11300
C243        C  0.66203448  0.73074636  0.65371766     0.02350
C244        C  0.70448523  0.70353028  0.62450740    -0.09820
C245        C  0.73490084  0.66129248  0.64939851     0.04840
C246        C  0.72208790  0.64551873  0.70395498    -0.09240
H247        H  0.61563075  0.73472417  0.73017821     0.10440
H248        H  0.71342338  0.71473516  0.58195051     0.07970
H249        H  0.74423420  0.61168274  0.72285534     0.07820
C250        C  0.35208343  0.27632447  0.33904197     0.04850
C251        C  0.36813447  0.28501860  0.28357857    -0.11300
C252        C  0.34532602  0.32858270  0.25340634     0.02350
C253        C  0.30445306  0.36201598  0.27820687    -0.09820
C254        C  0.28677946  0.35214805  0.33253135     0.04840
C255        C  0.31124091  0.30981296  0.36308636    -0.09240
H256        H  0.40091632  0.26031863  0.26518137     0.10440
H257        H  0.28640488  0.39573790  0.25523752     0.07970
H258        H  0.29881417  0.30327698  0.40580939     0.07820
C259        C  0.19145606  0.36086740  0.61347247    -0.14710
C260        C  0.24469311  0.37582658  0.62147408    -0.29880
H261        H  0.17750495  0.32118150  0.62813544     0.14310
H262        H  0.25785784  0.41715872  0.61137296     0.14890
C263        C  0.25426927  0.62893713  0.61917812    -0.14710
C264        C  0.20327919  0.64615851  0.60453554    -0.29880
H265        H  0.26495869  0.58582151  0.61483548     0.14310
H266        H  0.19122990  0.68810562  0.61442495     0.14890
C267        C  0.21421241  0.62692162  0.38263612    -0.14710
C268        C  0.21560166  0.64709114  0.33096057    -0.29880
H269        H  0.25176468  0.62813515  0.40817418     0.14310
H270        H  0.18017060  0.64107476  0.30317845     0.14890
C271        C  0.24398186  0.38741951  0.35801326    -0.14710
C272        C  0.19727331  0.36579333  0.37878101    -0.29880
H273        H  0.24940125  0.43162736  0.35693061     0.14310
H274        H  0.18953184  0.32204095  0.37452994     0.14890
C275        C  0.82881655  0.62187932  0.63595666    -0.14710
C276        C  0.77756105  0.63233564  0.61606886    -0.29880
H277        H  0.83985161  0.63487001  0.67797224     0.14310
H278        H  0.76820782  0.62402115  0.57249733     0.14890
C279        C  0.80530115  0.36057155  0.64503531    -0.14710
C280        C  0.81193314  0.38130890  0.59420982    -0.29880
H281        H  0.83649855  0.36760212  0.67726889     0.14310
H282        H  0.77748053  0.37882745  0.56463392     0.14890
C283        C  0.81828579  0.40303660  0.35650658    -0.14710
C284        C  0.81629887  0.35186839  0.33554810    -0.29880
H285        H  0.78085381  0.42818636  0.35599602     0.14310
H286        H  0.85164758  0.32451257  0.34101672     0.14890
C287        C  0.82590472  0.66105458  0.32226988    -0.14710
C288        C  0.82850976  0.64472358  0.37532830    -0.29880
H289        H  0.85962864  0.65095772  0.29394556     0.14310
H290        H  0.79201487  0.64962335  0.40154759     0.14890
C291        C  0.63707292  0.18239737  0.61972859    -0.14710
C292        C  0.65046653  0.23132224  0.59887425    -0.29880
H293        H  0.64688862  0.17345130  0.66290762     0.14310
H294        H  0.64542996  0.23931153  0.55474964     0.14890
C295        C  0.35173913  0.19959407  0.62759489    -0.14710
C296        C  0.40423740  0.18030711  0.62789370    -0.29880
H297        H  0.32052493  0.17890323  0.60202803     0.14310
H298        H  0.43713514  0.20410293  0.64770889     0.14890
C299        C  0.39076328  0.18442354  0.35331166    -0.14710
C300        C  0.37971268  0.23447944  0.37357348    -0.29880
H301        H  0.37752798  0.17371166  0.31126177     0.14310
H302        H  0.38820979  0.24395728  0.41707626     0.14890
C303        C  0.62533010  0.19950267  0.35982816    -0.14710
C304        C  0.67501985  0.20303324  0.33483237    -0.29880
H305        H  0.59956240  0.23608996  0.36307512     0.14310
H306        H  0.70384831  0.16868920  0.33593020     0.14890
C307        C  0.39238955  0.80232775  0.59167686    -0.14710
C308        C  0.36826788  0.80159176  0.64204110    -0.29880
H309        H  0.39382069  0.76459594  0.56726379     0.14310
H310        H  0.37115016  0.83736131  0.66919055     0.14890
C311        C  0.65290954  0.81327253  0.59663395    -0.14710
C312        C  0.62866985  0.77394270  0.62658997    -0.29880
H313        H  0.69810835  0.81570675  0.59454220     0.14310
H314        H  0.58392018  0.77513133  0.63358383     0.14890
C315        C  0.63909278  0.82533587  0.33217895    -0.14710
C316        C  0.65557292  0.77590311  0.34976161    -0.29880
H317        H  0.65007046  0.83821719  0.29048534     0.14310
H318        H  0.64997889  0.76483654  0.39305149     0.14890
C319        C  0.37942143  0.77195451  0.35639857    -0.14710
C320        C  0.40030820  0.81848893  0.33592660    -0.29880
H321        H  0.38197640  0.76434891  0.40082267     0.14310
H322        H  0.39225206  0.82899003  0.29279518     0.14890
C323        C  0.63746599  0.37617201  0.23091441    -0.14710
C324        C  0.64438323  0.37255715  0.17588160    -0.29880
H325        H  0.60627958  0.40306885  0.24911133     0.14310
H326        H  0.67586798  0.34436956  0.16001401     0.14890
C327        C  0.62745335  0.63958607  0.17608364    -0.14710
C328        C  0.67861942  0.66186575  0.17611793    -0.29880
H329        H  0.60294555  0.64147839  0.21398956     0.14310
H330        H  0.70595357  0.65520880  0.14078868     0.14890
C331        C  0.38164491  0.61459831  0.18054969    -0.14710
C332        C  0.35677684  0.66372293  0.18086318    -0.29880
H333        H  0.38199976  0.59094438  0.21870267     0.14310
H334        H  0.35955148  0.69064297  0.14529126     0.14890
C335        C  0.38438602  0.39446436  0.18923637    -0.14710
C336        C  0.36877928  0.34268882  0.19853682    -0.29880
H337        H  0.37907849  0.42493081  0.22213424     0.14310
H338        H  0.37959153  0.31034152  0.16912835     0.14890
C339        C  0.64218799  0.60005538  0.79237203    -0.14710
C340        C  0.66012265  0.65182675  0.78783433    -0.29880
H341        H  0.64420488  0.57306608  0.75614202     0.14310
H342        H  0.65267190  0.68114178  0.82130108     0.14890
C343        C  0.65069160  0.37798668  0.80598141    -0.14710
C344        C  0.63033537  0.36267696  0.75628476    -0.29880
H345        H  0.69394117  0.36936551  0.81649230     0.14310
H346        H  0.58593547  0.36660611  0.74774693     0.14890
C347        C  0.39398924  0.35218282  0.76290110    -0.14710
C348        C  0.37149705  0.37431063  0.80886740    -0.29880
H349        H  0.43904902  0.34978949  0.75870258     0.14310
H350        H  0.32672862  0.37196946  0.81534226     0.14890
C351        C  0.38353602  0.60818124  0.79510456    -0.14710
C352        C  0.36707139  0.66064261  0.79103727    -0.29880
H353        H  0.38064471  0.58154047  0.75868962     0.14310
H354        H  0.37534575  0.68931446  0.82495969     0.14890
loop_ 
_geom_bond_atom_site_label_1 
_geom_bond_atom_site_label_2 
_geom_bond_distance 
_geom_bond_site_symmetry_2 
_ccdc_geom_bond_type 
O1          Zr13   2.445       .  S
O1            C3   1.287       .  A
O2          Zr39   2.418       .  S
O2            C3   1.285       .  A
C3          C348   1.470       .  S
O4          Zr16   2.466   1_554  S
O4            C6   1.292       .  A
O5          Zr40   2.404       .  S
O5            C6   1.282       .  A
C6          C331   1.470       .  S
O7          Zr16   2.465       .  S
O7            C9   1.292       .  A
O8          Zr39   2.404       .  S
O8            C9   1.282       .  A
C9          C351   1.470       .  S
O10         Zr13   2.465   1_554  S
O10          C12   1.291       .  A
O11         Zr40   2.394       .  S
O11          C12   1.280       .  A
C12         C335   1.466       .  S
Zr13         O14   2.434   1_556  S
Zr13         O15   2.435       .  S
Zr13         O19   2.378       .  S
Zr13         O20   2.364   1_556  S
Zr13         O43   2.375   1_556  S
Zr13         O45   2.380       .  S
O14          H57   0.990   1_554  S
O15          H56   0.990       .  S
O15          H60   0.990       .  S
Zr16         O17   2.435       .  S
Zr16         O18   2.435       .  S
Zr16         O20   2.376   1_556  S
Zr16         O19   2.379       .  S
Zr16         O44   2.376       .  S
Zr16         O46   2.376   1_556  S
O17          H58   0.990   1_556  S
O17          H61   0.990       .  S
O18          H51   0.990       .  S
O19         Zr39   2.378       .  S
O20         Zr40   2.384       .  S
O20          H47   0.965       .  S
O21         Zr33   2.409   1_554  S
O21          C23   1.280       .  A
O22         Zr40   2.452       .  S
O22          C23   1.291       .  A
C23         C324   1.473       .  S
O24         Zr36   2.463       .  S
O24          C26   1.292       .  A
O25         Zr39   2.409       .  S
O25          C26   1.283       .  A
C26         C339   1.473       .  S
O27         Zr36   2.464   1_554  S
O27          C29   1.292       .  A
O28         Zr40   2.404       .  S
O28          C29   1.282       .  A
C29         C327   1.473       .  S
O30         Zr33   2.422       .  S
O30          C32   1.282       .  A
O31         Zr39   2.425       .  S
O31          C32   1.287       .  A
C32         C343   1.467       .  S
Zr33         O34   2.436       .  S
Zr33         O35   2.434       .  S
Zr33         O41   2.376   1_556  S
Zr33         O42   2.360       .  S
Zr33         O45   2.369       .  S
Zr33         O43   2.373   1_556  S
O34          H54   0.990   1_556  S
O34          H59   0.990   1_556  S
O35          H55   0.990   1_556  S
Zr36         O37   2.433       .  S
Zr36         O38   2.435       .  S
Zr36         O42   2.374       .  S
Zr36         O41   2.380   1_556  S
Zr36         O46   2.372   1_556  S
Zr36         O44   2.375       .  S
O37          H53   0.990       .  S
O38          H52   0.990   1_556  S
O38          H62   0.990       .  S
Zr39         O42   2.369       .  S
Zr39         O44   2.389       .  S
Zr39         O45   2.374       .  S
Zr40         O41   2.376       .  S
Zr40         O43   2.371       .  S
Zr40         O46   2.383       .  S
O41          H49   0.966       .  S
O44          H48   0.966       .  S
O45          H50   0.966       .  S
O63         Zr75   2.427   1_565  S
O63          C65   1.284       .  A
O64        Zr101   2.430       .  S
O64          C65   1.287       .  A
C65         C320   1.468       .  S
O66         Zr78   2.470       .  S
O66          C68   1.293       .  A
O67        Zr102   2.398       .  S
O67          C68   1.281       .  A
C68         C303   1.471       .  S
O69         Zr78   2.441   1_565  S
O69          C71   1.287       .  A
O70        Zr101   2.434       .  S
O70          C71   1.289       .  A
C71         C315   1.476       .  S
O72         Zr75   2.423       .  S
O72          C74   1.283       .  A
O73        Zr102   2.437       .  S
O73          C74   1.289       .  A
C74         C299   1.470       .  S
Zr75         O76   2.433       .  S
Zr75         O77   2.435   1_545  S
Zr75         O81   2.365   1_545  S
Zr75         O82   2.365       .  S
Zr75        O105   2.375       .  S
Zr75        O107   2.367   1_545  S
O76         H119   0.990       .  S
O77         H118   0.990       .  S
O77         H122   0.990       .  S
Zr78         O79   2.435       .  S
Zr78         O80   2.436       .  S
Zr78         O82   2.362       .  S
Zr78         O81   2.378   1_545  S
Zr78        O106   2.378   1_545  S
Zr78        O108   2.369       .  S
O79         H120   0.990       .  S
O79         H123   0.990       .  S
O80         H113   0.990   1_545  S
O81        Zr101   2.380       .  S
O82        Zr102   2.375       .  S
O82         H109   0.965       .  S
O83         Zr95   2.477   1_545  S
O83          C85   1.293       .  A
O84        Zr102   2.398       .  S
O84          C85   1.281       .  A
C85         C296   1.468       .  S
O86         Zr98   2.434       .  S
O86          C88   1.285       .  A
O87        Zr101   2.431       .  S
O87          C88   1.287       .  A
C88         C311   1.466       .  S
O89         Zr98   2.437   1_545  S
O89          C91   1.286       .  A
O90        Zr102   2.425       .  S
O90          C91   1.287       .  A
C91         C291   1.468       .  S
O92         Zr95   2.464       .  S
O92          C94   1.293       .  A
O93        Zr101   2.423       .  S
O93          C94   1.286       .  A
C94         C307   1.480       .  S
Zr95         O96   2.435       .  S
Zr95         O97   2.434       .  S
Zr95        O103   2.370   1_565  S
Zr95        O104   2.384       .  S
Zr95        O107   2.379       .  S
Zr95        O105   2.381   1_565  S
O96         H116   0.990   1_565  S
O96         H121   0.990       .  S
O97         H117   0.990   1_565  S
Zr98         O99   2.434       .  S
Zr98        O100   2.435   1_565  S
Zr98        O104   2.377       .  S
Zr98        O103   2.369   1_565  S
Zr98        O108   2.374   1_565  S
Zr98        O106   2.370       .  S
O99         H115   0.990       .  S
O100        H114   0.990       .  S
O100        H124   0.990       .  S
Zr101       O104   2.382       .  S
Zr101       O106   2.388       .  S
Zr101       O107   2.385       .  S
Zr102       O103   2.382       .  S
Zr102       O105   2.379       .  S
Zr102       O108   2.379       .  S
O103        H111   0.965       .  S
O106        H110   0.966       .  S
O107        H112   0.966       .  S
O125       Zr137   2.472   1_655  S
O125        C127   1.293       .  A
O126       Zr163   2.393       .  S
O126        C127   1.280       .  A
C127        C288   1.469       .  S
O128       Zr140   2.437       .  S
O128        C130   1.286       .  A
O129       Zr164   2.422       .  S
O129        C130   1.286       .  A
C130        C272   1.466       .  S
O131       Zr140   2.453   1_655  S
O131        C133   1.290       .  A
O132       Zr163   2.405       .  S
O132        C133   1.282       .  A
C133        C283   1.469       .  S
O134       Zr137   2.460       .  S
O134        C136   1.292       .  A
O135       Zr164   2.409       .  S
O135        C136   1.283       .  A
C136        C267   1.472       .  S
Zr137       O138   2.435       .  S
Zr137       O139   2.435       .  S
Zr137       O143   2.368   1_455  S
Zr137       O144   2.379       .  S
Zr137       O167   2.376       .  S
Zr137       O169   2.382   1_455  S
O138        H181   0.990   1_455  S
O139        H180   0.990   1_455  S
O139        H184   0.990       .  S
Zr140       O141   2.435       .  S
Zr140       O142   2.435       .  S
Zr140       O144   2.376       .  S
Zr140       O143   2.372   1_455  S
Zr140       O168   2.363   1_455  S
Zr140       O170   2.374       .  S
O141        H182   0.990       .  S
O141        H185   0.990       .  S
O142        H175   0.990   1_455  S
O143       Zr163   2.376       .  S
O144       Zr164   2.392       .  S
O144        H171   0.966       .  S
O145       Zr157   2.431       .  S
O145        C147   1.284       .  A
O146       Zr164   2.442       .  S
O146        C147   1.290       .  A
C147        C264   1.476       .  S
O148       Zr160   2.462   1_655  S
O148        C150   1.292       .  A
O149       Zr163   2.398       .  S
O149        C150   1.281       .  A
C150        C280   1.466       .  S
O151       Zr160   2.440       .  S
O151        C153   1.286       .  A
O152       Zr164   2.430       .  S
O152        C153   1.289       .  A
C153        C259   1.476       .  S
O154       Zr157   2.439   1_655  S
O154        C156   1.286       .  A
O155       Zr163   2.425       .  S
O155        C156   1.287       .  A
C156        C275   1.476       .  S
Zr157       O158   2.436       .  S
Zr157       O159   2.434       .  S
Zr157       O165   2.377       .  S
Zr157       O166   2.370   1_455  S
Zr157       O169   2.369   1_455  S
Zr157       O167   2.367       .  S
O158        H178   0.990       .  S
O158        H183   0.990       .  S
O159        H179   0.990       .  S
Zr160       O161   2.434       .  S
Zr160       O162   2.436   1_455  S
Zr160       O166   2.370   1_455  S
Zr160       O165   2.388       .  S
Zr160       O170   2.371       .  S
Zr160       O168   2.368   1_455  S
O161        H177   0.990       .  S
O162        H176   0.990   1_655  S
O162        H186   0.990   1_655  S
Zr163       O166   2.369       .  S
Zr163       O168   2.377       .  S
Zr163       O169   2.374       .  S
Zr164       O165   2.384       .  S
Zr164       O167   2.373       .  S
Zr164       O170   2.381       .  S
O165        H173   0.966       .  S
O168        H172   0.965       .  S
O169        H174   0.966       .  S
C187        C284   1.481       .  S
C187        C188   1.407       .  A
C187        C192   1.403       .  A
C188        C189   1.398       .  A
C188        H193   1.084       .  S
C189        C323   1.475       .  S
C189        C190   1.400       .  A
C190        C191   1.408       .  A
C190        H194   1.084       .  S
C191        C304   1.482       .  S
C191        C192   1.403       .  A
C192        H195   1.084       .  S
C196        C287   1.485       .  S
C196        C197   1.403       .  A
C196        C201   1.408       .  A
C197        C198   1.404       .  A
C197        H202   1.084       .  S
C198        C328   1.483       .  S
C198        C199   1.409       .  A
C199        C200   1.404       .  A
C199        H203   1.084       .  S
C200        C316   1.479       .  S
C200        C201   1.399       .  A
C201        H204   1.084       .  S
C205        C344   1.476       .  S
C205        C206   1.399       .  A
C205        C210   1.407       .  A
C206        C207   1.400       .  A
C206        H211   1.085       .  S
C207        C292   1.470       .  S
C207        C208   1.398       .  A
C208        C209   1.405       .  A
C208        H212   1.084       .  S
C209        C279   1.476       .  S
C209        C210   1.400       .  A
C210        H213   1.084       .  S
C214        C319   1.479       .  S
C214        C215   1.405       .  A
C214        C219   1.402       .  A
C215        C216   1.400       .  A
C215        H220   1.084       .  S
C216        C332   1.474       .  S
C216        C217   1.403       .  A
C217        C218   1.403       .  A
C217        H221   1.084       .  S
C218        C268   1.482       .  S
C218        C219   1.407       .  A
C219        H222   1.084       .  S
C223        C352   1.486       .  S
C223        C224   1.405       .  A
C223        C228   1.406       .  A
C224        C225   1.407       .  A
C224        H229   1.084       .  S
C225        C308   1.487       .  S
C225        C226   1.410       .  A
C226        C227   1.406       .  A
C226        H230   1.084       .  S
C227        C263   1.480       .  S
C227        C228   1.397       .  A
C228        H231   1.084       .  S
C232        C347   1.474       .  S
C232        C233   1.400       .  A
C232        C237   1.399       .  A
C233        C234   1.411       .  A
C233        H238   1.082       .  S
C234        C295   1.492       .  S
C234        C235   1.408       .  A
C235        C236   1.408       .  A
C235        H239   1.084       .  S
C236        C260   1.477       .  S
C236        C237   1.398       .  A
C237        H240   1.085       .  S
C241        C340   1.479       .  S
C241        C242   1.402       .  A
C241        C246   1.408       .  A
C242        C243   1.401       .  A
C242        H247   1.084       .  S
C243        C312   1.478       .  S
C243        C244   1.403       .  A
C244        C245   1.400       .  A
C244        H248   1.084       .  S
C245        C276   1.478       .  S
C245        C246   1.406       .  A
C246        H249   1.084       .  S
C250        C300   1.477       .  S
C250        C251   1.408       .  A
C250        C255   1.399       .  A
C251        C252   1.402       .  A
C251        H256   1.084       .  S
C252        C336   1.481       .  S
C252        C253   1.406       .  A
C253        C254   1.399       .  A
C253        H257   1.084       .  S
C254        C271   1.471       .  S
C254        C255   1.400       .  A
C255        H258   1.084       .  S
C259        C260   1.340       .  D
C259        H261   1.087       .  S
C260        H262   1.087       .  S
C263        C264   1.339       .  D
C263        H265   1.087       .  S
C264        H266   1.088       .  S
C267        C268   1.342       .  D
C267        H269   1.087       .  S
C268        H270   1.087       .  S
C271        C272   1.339       .  D
C271        H273   1.087       .  S
C272        H274   1.087       .  S
C275        C276   1.341       .  D
C275        H277   1.087       .  S
C276        H278   1.087       .  S
C279        C280   1.338       .  D
C279        H281   1.086       .  S
C280        H282   1.088       .  S
C283        C284   1.342       .  D
C283        H285   1.087       .  S
C284        H286   1.087       .  S
C287        C288   1.341       .  D
C287        H289   1.087       .  S
C288        H290   1.087       .  S
C291        C292   1.339       .  D
C291        H293   1.087       .  S
C292        H294   1.087       .  S
C295        C296   1.344       .  D
C295        H297   1.087       .  S
C296        H298   1.085       .  S
C299        C300   1.337       .  D
C299        H301   1.087       .  S
C300        H302   1.087       .  S
C303        C304   1.340       .  D
C303        H305   1.088       .  S
C304        H306   1.086       .  S
C307        C308   1.345       .  D
C307        H309   1.087       .  S
C308        H310   1.086       .  S
C311        C312   1.340       .  D
C311        H313   1.087       .  S
C312        H314   1.087       .  S
C315        C316   1.341       .  D
C315        H317   1.087       .  S
C316        H318   1.087       .  S
C319        C320   1.340       .  D
C319        H321   1.087       .  S
C320        H322   1.087       .  S
C323        C324   1.336       .  D
C323        H325   1.086       .  S
C324        H326   1.089       .  S
C327        C328   1.342       .  D
C327        H329   1.088       .  S
C328        H330   1.087       .  S
C331        C332   1.338       .  D
C331        H333   1.089       .  S
C332        H334   1.086       .  S
C335        C336   1.339       .  D
C335        H337   1.088       .  S
C336        H338   1.087       .  S
C339        C340   1.340       .  D
C339        H341   1.088       .  S
C340        H342   1.087       .  S
C343        C344   1.338       .  D
C343        H345   1.087       .  S
C344        H346   1.087       .  S
C347        C348   1.341       .  D
C347        H349   1.087       .  S
C348        H350   1.087       .  S
C351        C352   1.344       .  D
C351        H353   1.087       .  S
C352        H354   1.087       .  S
