geometry optimzed in LAMMPS
_audit_creation_date              2020-11-30 
_audit_creation_method            'lammps2cif' 
_symmetry_space_group_name_H-M    'P1' 
_symmetry_Int_Tables_number       1 
_symmetry_cell_setting            triclinic 
loop_ 
_symmetry_equiv_pos_as_xyz 
  x,y,z 
_cell_length_a                    27.89650279552719 
_cell_length_b                    27.914604889048817 
_cell_length_c                    27.84984802086186 
_cell_angle_alpha                 90.05420378931701 
_cell_angle_beta                  90.04720011999837 
_cell_angle_gamma                 89.95323513689169 
loop_ 
_atom_site_label 
_atom_site_type_symbol 
_atom_site_fract_x 
_atom_site_fract_y 
_atom_site_fract_z 
_atom_site_charge 
C1          C  0.12472965  0.50093300  0.12510774    -0.00940
C2          C  0.91400675  0.49999216  0.12443106    -0.00940
C3          C  0.91443825  0.49895948  0.91385165    -0.00940
C4          C  0.12513322  0.49967011  0.91455098    -0.00940
N5          N  0.33802030  0.82102645  0.23186862    -0.25750
N6          N  0.33816076  0.78708605  0.19866275    -0.33610
C7          C  0.37533069  0.79431224  0.16878937     0.02590
C8          C  0.39949245  0.83460612  0.18409314     0.08620
C9          C  0.37510674  0.85077283  0.22400648    -0.04480
H10         H  0.38416223  0.77175079  0.13843848     0.09290
H11         H  0.38375972  0.88162976  0.24589614     0.10490
Cu12       Cu  0.28833219  0.73214768  0.19566595     0.44170
Cu13       Cu  0.28801756  0.82504410  0.28683065     0.41990
Cu14       Cu  0.19781264  0.73182998  0.28856413     0.43880
N15         N  0.23461666  0.68114993  0.20042515    -0.33130
N16         N  0.20147397  0.68107209  0.23437583    -0.27390
C17         C  0.17183418  0.64374502  0.22724347    -0.03490
C18         C  0.18725850  0.61941078  0.18700492     0.08730
C19         C  0.22698639  0.64386191  0.17076420     0.02520
H20         H  0.14128754  0.63518762  0.24955775     0.10180
H21         H  0.24860780  0.63542115  0.13964073     0.09250
N22         N  0.20167647  0.78632730  0.33895257    -0.34580
N23         N  0.23457678  0.82043809  0.33838307    -0.26760
C24         C  0.22713574  0.85007215  0.37578898    -0.02000
C25         C  0.18781211  0.83360743  0.40082025     0.06610
C26         C  0.17242574  0.79331029  0.37668868     0.04700
H27         H  0.24868251  0.88123992  0.38400471     0.09810
H28         H  0.14222222  0.77077086  0.38572791     0.08640
C29         C  0.52029865  0.89569930  0.12546936    -0.00940
C30         C  0.51862031  0.10522666  0.12456977    -0.00940
C31         C  0.52075544  0.89398820  0.91399325    -0.00940
C32         C  0.51918609  0.10349230  0.91321744    -0.00940
N33         N  0.83993485  0.31771807  0.23201041    -0.25750
N34         N  0.80699536  0.31772528  0.19779485    -0.33610
C35         C  0.81480907  0.35512796  0.16840571     0.02590
C36         C  0.85440559  0.37956477  0.18511609     0.08620
C37         C  0.86958747  0.35509830  0.22533262    -0.04480
H38         H  0.79313639  0.36392251  0.13739436     0.09290
H39         H  0.89974241  0.36382600  0.24817770     0.10490
Cu40       Cu  0.75244194  0.26749784  0.19303234     0.44170
Cu41       Cu  0.84286558  0.26742119  0.28657197     0.41990
Cu42       Cu  0.75036784  0.17687352  0.28631279     0.43880
N43         N  0.70084866  0.21421668  0.19746785    -0.33130
N44         N  0.70013639  0.18124576  0.23157219    -0.27390
C45         C  0.66215465  0.15240388  0.22465196    -0.03490
C46         C  0.63800169  0.16812775  0.18444150     0.08730
C47         C  0.66329767  0.20721729  0.16791104     0.02520
H48         H  0.65287970  0.12230709  0.24725827     0.10180
H49         H  0.65508720  0.22899036  0.13684208     0.09250
N50         N  0.80428271  0.18044339  0.33749487    -0.34580
N51         N  0.83809607  0.21364465  0.33753655    -0.26760
C52         C  0.86755381  0.20617916  0.37505248    -0.02000
C53         C  0.85135169  0.16649716  0.39958036     0.06610
C54         C  0.81131738  0.15091334  0.37501738     0.04700
H55         H  0.89848541  0.22793183  0.38363844     0.09810
H56         H  0.78905346  0.12037759  0.38358963     0.08640
C57         C  0.12590134  0.89516389  0.52005991    -0.00940
C58         C  0.91554757  0.89434990  0.51967304    -0.00940
C59         C  0.12372191  0.10569054  0.51907789    -0.00940
C60         C  0.91335070  0.10486575  0.51875325    -0.00940
N61         N  0.19867113  0.21256442  0.70157515    -0.25750
N62         N  0.23234119  0.17916141  0.70134476    -0.33610
C63         C  0.22517658  0.14985897  0.66364790     0.02590
C64         C  0.18520976  0.16578013  0.63924311     0.08620
C65         C  0.16915251  0.20543426  0.66403531    -0.04480
H66         H  0.24741252  0.11933374  0.65476773     0.09290
H67         H  0.13839028  0.22749090  0.65550853     0.10490
Cu68       Cu  0.28650002  0.17503846  0.75210027     0.44170
Cu69       Cu  0.19452872  0.26643184  0.75263032     0.41990
Cu70       Cu  0.28651805  0.26658921  0.84451424     0.43880
N71         N  0.33696961  0.17881831  0.80656320    -0.33130
N72         N  0.33702945  0.21222676  0.84030132    -0.27390
C73         C  0.37439376  0.20468698  0.86992640    -0.03490
C74         C  0.39872066  0.16474778  0.85387974     0.08730
C75         C  0.37426470  0.14911880  0.81379903     0.02520
H76         H  0.38312688  0.22667228  0.90072934     0.10180
H77         H  0.38287108  0.11853737  0.79149953     0.09250
N78         N  0.23220384  0.31717438  0.84047641    -0.34580
N79         N  0.19860023  0.31706086  0.80691871    -0.26760
C80         C  0.16911229  0.35454125  0.81406104    -0.02000
C81         C  0.18509554  0.37918831  0.85388603     0.06610
C82         C  0.22499983  0.35474755  0.86989677     0.04700
H83         H  0.13848346  0.36318513  0.79182308     0.09810
H84         H  0.24722882  0.36359216  0.90050168     0.08640
N85         N  0.19961493  0.68116918  0.80619152    -0.25750
N86         N  0.23316277  0.68095318  0.83981424    -0.33610
C87         C  0.22606779  0.64327559  0.86901321     0.02590
C88         C  0.18629535  0.61881543  0.85285173     0.08620
C89         C  0.17024149  0.64359014  0.81312412    -0.04480
H90         H  0.24818440  0.63449311  0.89971132     0.09290
H91         H  0.13953042  0.63507687  0.79095045     0.10490
Cu92       Cu  0.28716465  0.73162169  0.84476132     0.44170
Cu93       Cu  0.19536224  0.73239756  0.75239436     0.41990
Cu94       Cu  0.28726461  0.82406320  0.75397940     0.43880
N95         N  0.33775131  0.78582299  0.84166324    -0.33130
N96         N  0.33775467  0.81964360  0.80841869    -0.27390
C97         C  0.37522380  0.84899483  0.81598293    -0.03490
C98         C  0.39973559  0.83269447  0.85576033     0.08730
C99         C  0.37523353  0.79272617  0.87130345     0.02520
H100        H  0.38399189  0.87972632  0.79403670     0.10180
H101        H  0.38400172  0.77021757  0.90168347     0.09250
N102        N  0.23339561  0.82055495  0.70281689    -0.34580
N103        N  0.19978226  0.78713939  0.70222352    -0.26760
C104        C  0.17060166  0.79482129  0.66450647    -0.02000
C105        C  0.18681943  0.83483354  0.64047020     0.06610
C106        C  0.22653413  0.85037717  0.66551195     0.04700
H107        H  0.13999193  0.77286196  0.65530305     0.09810
H108        H  0.24884784  0.88097199  0.65729111     0.08640
N109        N  0.70074679  0.21308329  0.84027895    -0.25750
N110        N  0.70072853  0.17949853  0.80671113    -0.33610
C111        C  0.66305070  0.15031454  0.81368385     0.02590
C112        C  0.63836036  0.16644778  0.85337500     0.08620
C113        C  0.66301806  0.20614214  0.86954500    -0.04480
H114        H  0.65436519  0.11969372  0.79147778     0.09290
H115        H  0.65428948  0.22832296  0.90020772     0.10490
Cu116      Cu  0.75143394  0.17472081  0.75261194     0.44170
Cu117      Cu  0.75185472  0.26689329  0.84453841     0.41990
Cu118      Cu  0.84370270  0.26541377  0.75247635     0.43880
N119        N  0.80535806  0.17815639  0.70162832    -0.33130
N120        N  0.83913793  0.21138828  0.70161039    -0.27390
C121        C  0.86835183  0.20405980  0.66391018    -0.03490
C122        C  0.85199026  0.16445361  0.63925072     0.08730
C123        C  0.81214565  0.14875786  0.66392340     0.02520
H124        H  0.89908311  0.22598848  0.65514533     0.10180
H125        H  0.78970033  0.11837820  0.65517525     0.09250
N126        N  0.84012966  0.31634757  0.80653079    -0.34580
N127        N  0.80662836  0.31693936  0.84013879    -0.26760
C128        C  0.81423376  0.35459309  0.86935738    -0.02000
C129        C  0.85428725  0.37857999  0.85317640     0.06610
C130        C  0.86993859  0.35358542  0.81344392     0.04700
H131        H  0.79217620  0.36380171  0.89995318     0.09810
H132        H  0.90056679  0.36182181  0.79112135     0.08640
N133        N  0.83843885  0.78409772  0.33984744    -0.25750
N134        N  0.80509908  0.81783583  0.34008763    -0.33610
C135        C  0.81312966  0.84759959  0.37724202     0.02590
C136        C  0.85330273  0.83162538  0.40127694     0.08620
C137        C  0.86858367  0.79145935  0.37683892    -0.04480
H138        H  0.79138357  0.87852046  0.38596941     0.09290
H139        H  0.89930050  0.76926709  0.38516794     0.10490
Cu140      Cu  0.75029871  0.82193290  0.28998598     0.44170
Cu141      Cu  0.84165003  0.72970074  0.28930426     0.41990
Cu142      Cu  0.74921118  0.72990697  0.19810292     0.43880
N143        N  0.69931454  0.81798757  0.23598656    -0.33130
N144        N  0.69892854  0.78438936  0.20244315    -0.27390
C145        C  0.66163044  0.79207196  0.17279058    -0.03490
C146        C  0.63764405  0.83228352  0.18862608     0.08730
C147        C  0.66226395  0.84796143  0.22859519     0.02520
H148        H  0.65288298  0.77016694  0.14193244     0.10180
H149        H  0.65411424  0.87892519  0.25053140     0.09250
N150        N  0.80349590  0.67933645  0.20150814    -0.34580
N151        N  0.83728523  0.67926006  0.23487016    -0.26760
C152        C  0.86704846  0.64214657  0.22700078    -0.02000
C153        C  0.85103562  0.61795894  0.18689811     0.06610
C154        C  0.81083150  0.64227091  0.17149135     0.04700
H155        H  0.89805880  0.63361277  0.24874785     0.09810
H156        H  0.78865033  0.63385493  0.14073233     0.08640
N157        N  0.84123254  0.78681573  0.70166947    -0.25750
N158        N  0.80703123  0.81968919  0.70130971    -0.33610
C159        C  0.81409942  0.84936682  0.66396304     0.02590
C160        C  0.85455465  0.83427956  0.63990258     0.08620
C161        C  0.87100275  0.79470209  0.66453486    -0.04480
H162        H  0.79134954  0.87947487  0.65497618     0.09290
H163        H  0.90208956  0.77309099  0.65605240     0.10490
Cu164      Cu  0.75195218  0.82255335  0.75104256     0.44170
Cu165      Cu  0.84550578  0.73226955  0.75201789     0.41990
Cu166      Cu  0.75161630  0.73010039  0.84179466     0.43880
N167        N  0.70062217  0.81760114  0.80447838    -0.33130
N168        N  0.70051536  0.78378725  0.83772533    -0.27390
C169        C  0.66297039  0.79077094  0.86719349    -0.03490
C170        C  0.63852994  0.83076665  0.85152380     0.08730
C171        C  0.66314567  0.84703103  0.81185937     0.02520
H172        H  0.65440368  0.76858912  0.89784600     0.10180
H173        H  0.65474798  0.87807312  0.79017444     0.09250
N174        N  0.80630846  0.68004333  0.83814872    -0.34580
N175        N  0.84067107  0.68077472  0.80543733    -0.26760
C176        C  0.87022772  0.64338527  0.81287075    -0.02000
C177        C  0.85342934  0.61819889  0.85197759     0.06610
C178        C  0.81304130  0.64222102  0.86726366     0.04700
H179        H  0.90150638  0.63522769  0.79140293     0.09810
H180        H  0.79021362  0.63299618  0.89724982     0.08640
N181        N  0.19916432  0.21402942  0.33785849    -0.25750
N182        N  0.23279002  0.18057548  0.33801831    -0.33610
C183        C  0.22548194  0.15119662  0.37558169     0.02590
C184        C  0.18548522  0.16715180  0.39993453     0.08620
C185        C  0.16957226  0.20688118  0.37526202    -0.04480
H186        H  0.24755319  0.12052249  0.38434117     0.09290
H187        H  0.13877487  0.22891835  0.38369989     0.10490
Cu188      Cu  0.28685781  0.17639361  0.28708248     0.44170
Cu189      Cu  0.19480313  0.26788190  0.28699393     0.41990
Cu190      Cu  0.28580102  0.26789641  0.19460601     0.43880
N191        N  0.33684072  0.18025964  0.23211081    -0.33130
N192        N  0.33643303  0.21362450  0.19838607    -0.27390
C193        C  0.37350442  0.20619455  0.16840900    -0.03490
C194        C  0.39816522  0.16636684  0.18417433     0.08730
C195        C  0.37418543  0.15069477  0.22448588     0.02520
H196        H  0.38183237  0.22820487  0.13756740     0.10180
H197        H  0.38316669  0.12018058  0.24668595     0.09250
N198        N  0.23164401  0.31859653  0.19907637    -0.34580
N199        N  0.19835647  0.31853669  0.23288309    -0.26760
C200        C  0.16886644  0.35606809  0.22606920    -0.02000
C201        C  0.18453791  0.38069932  0.18618898     0.06610
C202        C  0.22424083  0.35619295  0.16980473     0.04700
H203        H  0.13845290  0.36474490  0.24855453     0.09810
H204        H  0.24619174  0.36500532  0.13904471     0.08640
C205        C  0.89051678  0.12654744  0.56137090    -0.11730
C206        C  0.87245098  0.14379509  0.59672081    -0.13290
C207        C  0.04358616  0.09466171  0.47780561    -0.11800
C208        C  0.06945090  0.11431821  0.51652034     0.10350
C209        C  0.04341739  0.13745202  0.55330196    -0.11800
C210        C  0.99327632  0.13734944  0.55317854    -0.11800
C211        C  0.96750822  0.11410891  0.51626972     0.10350
C212        C  0.99362285  0.09459495  0.47766154    -0.11800
H213        H  0.06227711  0.07701026  0.44864583     0.14330
H214        H  0.06134618  0.15384177  0.58356710     0.14330
H215        H  0.97514930  0.15362803  0.58337398     0.14330
H216        H  0.97513881  0.07685404  0.44841461     0.14330
C217        C  0.14627353  0.12770833  0.56165888    -0.11730
C218        C  0.16436530  0.14515014  0.59689756    -0.13290
C219        C  0.14617587  0.12831775  0.47683323    -0.11730
C220        C  0.16426559  0.14630319  0.44192427    -0.13290
C221        C  0.88341139  0.97409056  0.48455885    -0.11800
C222        C  0.90700855  0.94861731  0.52143637     0.10350
C223        C  0.92691951  0.97499224  0.55966048    -0.11800
C224        C  0.92632504  0.02489727  0.55947824    -0.11800
C225        C  0.90582511  0.05049170  0.52104139     0.10350
C226        C  0.88283092  0.02419616  0.48436636    -0.11800
H227        H  0.86694934  0.95575535  0.45458372     0.14330
H228        H  0.94503558  0.95674755  0.58881763     0.14330
H229        H  0.94402295  0.04378835  0.58848601     0.14330
H230        H  0.86598484  0.04191673  0.45424219     0.14330
C231        C  0.89301467  0.87271060  0.56238734    -0.11730
C232        C  0.87513605  0.85522935  0.59765529    -0.13290
C233        C  0.87502882  0.85278696  0.44290438    -0.11730
C234        C  0.89320323  0.87120828  0.47759300    -0.13290
C235        C  0.11290551  0.97556134  0.56013564    -0.11800
C236        C  0.13355166  0.94955146  0.52204651     0.10350
C237        C  0.15667365  0.97546864  0.48525819    -0.11800
C238        C  0.15600180  0.02556355  0.48493327    -0.11800
C239        C  0.13219771  0.05143416  0.52139363     0.10350
C240        C  0.11219893  0.02547834  0.55978972    -0.11800
H241        H  0.09512281  0.95697851  0.58922760     0.14330
H242        H  0.17368142  0.95745112  0.45540324     0.14330
H243        H  0.17258680  0.04355992  0.45488050     0.14330
H244        H  0.09395929  0.04404224  0.58866630     0.14330
C245        C  0.04590934  0.86302341  0.55439223    -0.11800
C246        C  0.07173777  0.88602011  0.51746379     0.10350
C247        C  0.04569624  0.90530376  0.47868196    -0.11800
C248        C  0.99573718  0.90519265  0.47863290    -0.11800
C249        C  0.96981798  0.88577528  0.51735196     0.10350
C250        C  0.99578608  0.86290957  0.55434033    -0.11800
H251        H  0.06396450  0.84692843  0.58472329     0.14330
H252        H  0.06423145  0.92285962  0.44941740     0.14330
H253        H  0.97709190  0.92262551  0.44931857     0.14330
H254        H  0.97782295  0.84669317  0.58461797     0.14330
C255        C  0.14861169  0.87357969  0.56281193    -0.11730
C256        C  0.16645659  0.85598329  0.59811412    -0.13290
C257        C  0.87242177  0.14532040  0.44156667    -0.11730
C258        C  0.89056158  0.12725058  0.47647055    -0.13290
C259        C  0.59601880  0.14565806  0.87385047    -0.11730
C260        C  0.56100912  0.12726648  0.89124585    -0.13290
C261        C  0.44089308  0.14372248  0.87455950    -0.11730
C262        C  0.47620290  0.12565238  0.89177453    -0.13290
C263        C  0.48678439  0.97332480  0.87992667    -0.11800
C264        C  0.52359096  0.94784130  0.90354844     0.10350
C265        C  0.56237654  0.97408186  0.92241685    -0.11800
C266        C  0.56201517  0.02400671  0.92227194    -0.11800
C267        C  0.52293702  0.04958113  0.90308657     0.10350
C268        C  0.48649711  0.02340431  0.87964329    -0.11800
H269        H  0.45665633  0.95505467  0.86376035     0.14330
H270        H  0.59170702  0.95576111  0.94013803     0.14330
H271        H  0.59102202  0.04285532  0.93994656     0.14330
H272        H  0.45613258  0.04114843  0.86330309     0.14330
C273        C  0.56242986  0.87049554  0.89141445    -0.11730
C274        C  0.59690670  0.85204255  0.87299189    -0.13290
C275        C  0.44224844  0.85307806  0.87640414    -0.11730
C276        C  0.47775209  0.87111441  0.89325850    -0.13290
C277        C  0.48063154  0.08686335  0.04392263    -0.11800
C278        C  0.51613001  0.11171766  0.06991247     0.10350
C279        C  0.54961651  0.13919430  0.04385734    -0.11800
C280        C  0.54982764  0.13868905  0.99365960    -0.11800
C281        C  0.51654856  0.11068931  0.96778131     0.10350
C282        C  0.48086277  0.08633264  0.99386913    -0.11800
H283        H  0.45378950  0.06597630  0.06258903     0.14330
H284        H  0.57679489  0.16017446  0.06187678     0.14330
H285        H  0.57711645  0.15933526  0.97553961     0.14330
H286        H  0.45414424  0.06508074  0.97531036     0.14330
C287        C  0.56044010  0.12921400  0.14646639    -0.11730
C288        C  0.59552999  0.14754610  0.16387686    -0.13290
C289        C  0.47557046  0.12756811  0.14574139    -0.11730
C290        C  0.44027323  0.14554869  0.16310218    -0.13290
C291        C  0.48616676  0.97538150  0.15863291    -0.11800
C292        C  0.52302500  0.94968453  0.13533331     0.10350
C293        C  0.56184099  0.97575207  0.11640965    -0.11800
C294        C  0.56150652  0.02567759  0.11626833    -0.11800
C295        C  0.52239996  0.05142557  0.13516298     0.10350
C296        C  0.48589544  0.02545480  0.15861277    -0.11800
H297        H  0.45600381  0.95726461  0.17482531     0.14330
H298        H  0.59120231  0.95727479  0.09892732     0.14330
H299        H  0.59055467  0.04437168  0.09857055     0.14330
H300        H  0.45549560  0.04332955  0.17471485     0.14330
C301        C  0.55541976  0.86450427  0.04516013    -0.11800
C302        C  0.51891785  0.88839294  0.07086193     0.10350
C303        C  0.48129512  0.90941896  0.04452067    -0.11800
C304        C  0.48138455  0.90897280  0.99448683    -0.11800
C305        C  0.51911180  0.88749915  0.96867268     0.10350
C306        C  0.55551397  0.86406428  0.99492190    -0.11800
H307        H  0.58502313  0.84738479  0.06344972     0.14330
H308        H  0.45253496  0.92796460  0.06291852     0.14330
H309        H  0.45269620  0.92720085  0.97565158     0.14330
H310        H  0.58518762  0.84664841  0.97704293     0.14330
C311        C  0.59625254  0.85404202  0.16716835    -0.11730
C312        C  0.56189532  0.87254245  0.14855115    -0.13290
C313        C  0.14862873  0.87249688  0.47789769    -0.11730
C314        C  0.16672084  0.85448696  0.44293985    -0.13290
C315        C  0.47724061  0.87307059  0.14625680    -0.11730
C316        C  0.44179806  0.85514797  0.16327537    -0.13290
C317        C  0.16549552  0.57665668  0.87366292    -0.11730
C318        C  0.14761005  0.54171252  0.89168209    -0.13290
C319        C  0.16446729  0.42162994  0.87441985    -0.11730
C320        C  0.14703624  0.45698747  0.89218825    -0.13290
C321        C  0.99493857  0.45918732  0.92722255    -0.11800
C322        C  0.96883830  0.49688411  0.90609370     0.10350
C323        C  0.99466527  0.53308137  0.88203057    -0.11800
C324        C  0.04478809  0.53327219  0.88222553    -0.11800
C325        C  0.07078455  0.49727076  0.90648938     0.10350
C326        C  0.04489364  0.45938743  0.92743197    -0.11800
H327        H  0.97642074  0.43051820  0.94567982     0.14330
H328        H  0.97657245  0.56255161  0.86452084     0.14330
H329        H  0.06273022  0.56286511  0.86485771     0.14330
H330        H  0.06356055  0.43085166  0.94603865     0.14330
C331        C  0.89181555  0.54095106  0.89095105    -0.12050
C332        C  0.87400376  0.57594806  0.87289338    -0.13290
C333        C  0.89283268  0.45622613  0.89129685    -0.11730
C334        C  0.87531370  0.42091973  0.87351867    -0.13290
C335        C  0.92439671  0.54089155  0.04403717    -0.11800
C336        C  0.90503902  0.50231698  0.07013856     0.10350
C337        C  0.88202640  0.46538585  0.04428290    -0.11800
C338        C  0.88211954  0.46514810  0.99408352    -0.11800
C339        C  0.90525355  0.50181881  0.96807858     0.10350
C340        C  0.92453600  0.54062937  0.99399792    -0.11800
H341        H  0.94188201  0.57019051  0.06260043     0.14330
H342        H  0.86576950  0.43526195  0.06238888     0.14330
H343        H  0.86594271  0.43485140  0.97611544     0.14330
H344        H  0.94213836  0.56972998  0.97531296     0.14330
C345        C  0.89091483  0.54191900  0.14698953    -0.11730
C346        C  0.87236644  0.57646589  0.16520117    -0.13290
C347        C  0.87529701  0.42195479  0.16490418    -0.11730
C348        C  0.89261783  0.45729185  0.14711464    -0.13290
C349        C  0.04457781  0.46047032  0.11243150    -0.11800
C350        C  0.07033857  0.49878323  0.13283910     0.10350
C351        C  0.04419320  0.53537097  0.15607762    -0.11800
C352        C  0.99404158  0.53513858  0.15592335    -0.11800
C353        C  0.96838394  0.49831451  0.13251854     0.10350
C354        C  0.99464224  0.46024182  0.11227122    -0.11800
H355        H  0.06335324  0.43154709  0.09452691     0.14330
H356        H  0.06206151  0.56540976  0.17283744     0.14330
H357        H  0.97579014  0.56502052  0.17257779     0.14330
H358        H  0.97626031  0.43115671  0.09424638     0.14330
C359        C  0.11438060  0.54136261  0.99458120    -0.11800
C360        C  0.13408950  0.50265432  0.96881874     0.10350
C361        C  0.15744906  0.46618155  0.99499122    -0.11800
C362        C  0.15735755  0.46648225  0.04518853    -0.11800
C363        C  0.13391539  0.50327474  0.07087114     0.10350
C364        C  0.11431768  0.54167874  0.04461885    -0.11800
H365        H  0.09660085  0.57031714  0.97576159     0.14330
H366        H  0.17396464  0.43598216  0.97714220     0.14330
H367        H  0.17381285  0.43649736  0.06342011     0.14330
H368        H  0.09649521  0.57087016  0.06305271     0.14330
C369        C  0.14734273  0.54306282  0.14775630    -0.11730
C370        C  0.16577551  0.57774846  0.16580299    -0.13290
C371        C  0.14640558  0.45842038  0.14795012    -0.11730
C372        C  0.16378969  0.42313195  0.16584357    -0.13290
loop_ 
_geom_bond_atom_site_label_1 
_geom_bond_atom_site_label_2 
_geom_bond_distance 
_geom_bond_site_symmetry_2 
_ccdc_geom_bond_type 
C1          C350   1.534       .  S
C1          C363   1.534       .  S
C1          C369   1.476       .  S
C1          C371   1.476       .  S
C2          C336   1.534       .  S
C2          C353   1.534       .  S
C2          C345   1.476       .  S
C2          C348   1.476       .  S
C3          C322   1.534       .  S
C3          C339   1.534       .  S
C3          C331   1.476       .  S
C3          C333   1.476       .  S
C4          C325   1.534       .  S
C4          C360   1.534       .  S
C4          C318   1.476       .  S
C4          C320   1.476       .  S
N5            N6   1.323       .  A
N5            C9   1.345       .  A
N5          Cu13   2.075       .  S
N6            C7   1.345       .  A
N6          Cu12   2.072       .  S
C7            C8   1.379       .  A
C7           H10   1.082       .  S
C8            C9   1.379       .  A
C8          C316   1.435       .  S
C9           H11   1.082       .  S
Cu12         N15   2.072       .  S
Cu13         N23   2.075       .  S
Cu14         N16   2.072       .  S
Cu14         N22   2.072       .  S
N15          N16   1.323       .  A
N15          C19   1.345       .  A
N16          C17   1.345       .  A
C17          C18   1.379       .  A
C17          H20   1.082       .  S
C18          C19   1.379       .  A
C18         C370   1.435       .  S
C19          H21   1.082       .  S
N22          N23   1.323       .  A
N22          C26   1.345       .  A
N23          C24   1.346       .  A
C24          C25   1.380       .  A
C24          H27   1.082       .  S
C25          C26   1.378       .  A
C25         C314   1.436       .  S
C26          H28   1.082       .  S
C29         C292   1.533       .  S
C29         C302   1.535       .  S
C29         C312   1.475       .  S
C29         C315   1.476       .  S
C30         C278   1.535       .  S
C30         C295   1.534       .  S
C30         C287   1.477       .  S
C30         C289   1.476       .  S
C31         C264   1.534       .  S
C31         C305   1.534       .  S
C31         C273   1.475       .  S
C31         C276   1.476       .  S
C32         C267   1.534       .  S
C32         C281   1.534       .  S
C32         C260   1.476       .  S
C32         C262   1.475       .  S
N33          N34   1.323       .  A
N33          C37   1.345       .  A
N33         Cu41   2.071       .  S
N34          C35   1.345       .  A
N34         Cu40   2.074       .  S
C35          C36   1.379       .  A
C35          H38   1.082       .  S
C36          C37   1.379       .  A
C36         C347   1.435       .  S
C37          H39   1.082       .  S
Cu40         N43   2.074       .  S
Cu41         N51   2.071       .  S
Cu42         N44   2.073       .  S
Cu42         N50   2.074       .  S
N43          N44   1.323       .  A
N43          C47   1.346       .  A
N44          C45   1.345       .  A
C45          C46   1.378       .  A
C45          H48   1.082       .  S
C46          C47   1.380       .  A
C46         C288   1.436       .  S
C47          H49   1.082       .  S
N50          N51   1.323       .  A
N50          C54   1.346       .  A
N51          C52   1.345       .  A
C52          C53   1.379       .  A
C52          H55   1.082       .  S
C53          C54   1.380       .  A
C53         C257   1.436       .  S
C54          H56   1.082       .  S
C57         C236   1.534       .  S
C57         C246   1.534       .  S
C57         C255   1.477       .  S
C57         C313   1.477       .  S
C58         C222   1.534       .  S
C58         C249   1.534       .  S
C58         C231   1.476       .  S
C58         C234   1.476       .  S
C59         C208   1.534       .  S
C59         C239   1.534       .  S
C59         C217   1.476       .  S
C59         C219   1.476       .  S
C60         C211   1.535       .  S
C60         C225   1.534       .  S
C60         C205   1.476       .  S
C60         C258   1.477       .  S
N61          N62   1.323       .  A
N61          C65   1.345       .  A
N61         Cu69   2.072       .  S
N62          C63   1.345       .  A
N62         Cu68   2.071       .  S
C63          C64   1.379       .  A
C63          H66   1.082       .  S
C64          C65   1.379       .  A
C64         C218   1.435       .  S
C65          H67   1.082       .  S
Cu68         N71   2.071       .  S
Cu69         N79   2.072       .  S
Cu70         N72   2.073       .  S
Cu70         N78   2.073       .  S
N71          N72   1.323       .  A
N71          C75   1.345       .  A
N72          C73   1.345       .  A
C73          C74   1.379       .  A
C73          H76   1.082       .  S
C74          C75   1.378       .  A
C74         C261   1.435       .  S
C75          H77   1.082       .  S
N78          N79   1.323       .  A
N78          C82   1.345       .  A
N79          C80   1.345       .  A
C80          C81   1.379       .  A
C80          H83   1.082       .  S
C81          C82   1.379       .  A
C81         C319   1.435       .  S
C82          H84   1.082       .  S
N85          N86   1.323       .  A
N85          C89   1.346       .  A
N85         Cu93   2.075       .  S
N86          C87   1.345       .  A
N86         Cu92   2.072       .  S
C87          C88   1.378       .  A
C87          H90   1.082       .  S
C88          C89   1.380       .  A
C88         C317   1.435       .  S
C89          H91   1.082       .  S
Cu92         N95   2.072       .  S
Cu93        N103   2.075       .  S
Cu94         N96   2.072       .  S
Cu94        N102   2.072       .  S
N95          N96   1.323       .  A
N95          C99   1.346       .  A
N96          C97   1.345       .  A
C97          C98   1.379       .  A
C97         H100   1.082       .  S
C98          C99   1.379       .  A
C98         C275   1.435       .  S
C99         H101   1.082       .  S
N102        N103   1.323       .  A
N102        C106   1.345       .  A
N103        C104   1.346       .  A
C104        C105   1.380       .  A
C104        H107   1.082       .  S
C105        C106   1.379       .  A
C105        C256   1.436       .  S
C106        H108   1.082       .  S
N109        N110   1.323       .  A
N109        C113   1.346       .  A
N109       Cu117   2.075       .  S
N110        C111   1.345       .  A
N110       Cu116   2.072       .  S
C111        C112   1.378       .  A
C111        H114   1.082       .  S
C112        C113   1.380       .  A
C112        C259   1.435       .  S
C113        H115   1.082       .  S
Cu116       N119   2.072       .  S
Cu117       N127   2.075       .  S
Cu118       N120   2.072       .  S
Cu118       N126   2.072       .  S
N119        N120   1.323       .  A
N119        C123   1.346       .  A
N120        C121   1.345       .  A
C121        C122   1.379       .  A
C121        H124   1.082       .  S
C122        C123   1.379       .  A
C122        C206   1.435       .  S
C123        H125   1.082       .  S
N126        N127   1.323       .  A
N126        C130   1.345       .  A
N127        C128   1.346       .  A
C128        C129   1.379       .  A
C128        H131   1.082       .  S
C129        C130   1.379       .  A
C129        C334   1.436       .  S
C130        H132   1.082       .  S
N133        N134   1.323       .  A
N133        C137   1.345       .  A
N133       Cu141   2.071       .  S
N134        C135   1.345       .  A
N134       Cu140   2.072       .  S
C135        C136   1.379       .  A
C135        H138   1.082       .  S
C136        C137   1.379       .  A
C136        C233   1.435       .  S
C137        H139   1.082       .  S
Cu140       N143   2.072       .  S
Cu141       N151   2.072       .  S
Cu142       N144   2.072       .  S
Cu142       N150   2.072       .  S
N143        N144   1.323       .  A
N143        C147   1.345       .  A
N144        C145   1.345       .  A
C145        C146   1.379       .  A
C145        H148   1.082       .  S
C146        C147   1.379       .  A
C146        C311   1.434       .  S
C147        H149   1.082       .  S
N150        N151   1.323       .  A
N150        C154   1.345       .  A
N151        C152   1.345       .  A
C152        C153   1.379       .  A
C152        H155   1.082       .  S
C153        C154   1.379       .  A
C153        C346   1.435       .  S
C154        H156   1.082       .  S
N157        N158   1.323       .  A
N157        C161   1.345       .  A
N157       Cu165   2.074       .  S
N158        C159   1.345       .  A
N158       Cu164   2.071       .  S
C159        C160   1.378       .  A
C159        H162   1.082       .  S
C160        C161   1.379       .  A
C160        C232   1.435       .  S
C161        H163   1.082       .  S
Cu164       N167   2.071       .  S
Cu165       N175   2.074       .  S
Cu166       N168   2.071       .  S
Cu166       N174   2.071       .  S
N167        N168   1.323       .  A
N167        C171   1.345       .  A
N168        C169   1.345       .  A
C169        C170   1.379       .  A
C169        H172   1.082       .  S
C170        C171   1.379       .  A
C170        C274   1.434       .  S
C171        H173   1.082       .  S
N174        N175   1.323       .  A
N174        C178   1.345       .  A
N175        C176   1.346       .  A
C176        C177   1.379       .  A
C176        H179   1.082       .  S
C177        C178   1.378       .  A
C177        C332   1.435       .  S
C178        H180   1.082       .  S
N181        N182   1.323       .  A
N181        C185   1.345       .  A
N181       Cu189   2.070       .  S
N182        C183   1.346       .  A
N182       Cu188   2.075       .  S
C183        C184   1.380       .  A
C183        H186   1.082       .  S
C184        C185   1.378       .  A
C184        C220   1.435       .  S
C185        H187   1.082       .  S
Cu188       N191   2.075       .  S
Cu189       N199   2.070       .  S
Cu190       N192   2.073       .  S
Cu190       N198   2.073       .  S
N191        N192   1.323       .  A
N191        C195   1.345       .  A
N192        C193   1.345       .  A
C193        C194   1.379       .  A
C193        H196   1.082       .  S
C194        C195   1.379       .  A
C194        C290   1.436       .  S
C195        H197   1.082       .  S
N198        N199   1.323       .  A
N198        C202   1.345       .  A
N199        C200   1.345       .  A
C200        C201   1.378       .  A
C200        H203   1.082       .  S
C201        C202   1.379       .  A
C201        C372   1.435       .  S
C202        H204   1.082       .  S
C205        C206   1.206       .  T
C207        C208   1.408       .  A
C207        C212   1.394   1_455  A
C207        H213   1.083       .  S
C208        C209   1.412       .  A
C209        C210   1.399   1_455  A
C209        H214   1.081       .  S
C210        C211   1.412       .  A
C210        H215   1.081       .  S
C211        C212   1.408       .  A
C212        H216   1.083       .  S
C217        C218   1.206       .  T
C219        C220   1.206       .  T
C221        C222   1.412       .  A
C221        C226   1.399   1_565  A
C221        H227   1.081       .  S
C222        C223   1.408       .  A
C223        C224   1.393   1_565  A
C223        H228   1.083       .  S
C224        C225   1.408       .  A
C224        H229   1.083       .  S
C225        C226   1.411       .  A
C226        H230   1.081       .  S
C231        C232   1.206       .  T
C233        C234   1.206       .  T
C235        C236   1.408       .  A
C235        C240   1.394   1_565  A
C235        H241   1.083       .  S
C236        C237   1.412       .  A
C237        C238   1.399   1_565  A
C237        H242   1.081       .  S
C238        C239   1.412       .  A
C238        H243   1.081       .  S
C239        C240   1.408       .  A
C240        H244   1.083       .  S
C245        C246   1.411       .  A
C245        C250   1.398   1_455  A
C245        H251   1.081       .  S
C246        C247   1.408       .  A
C247        C248   1.394   1_455  A
C247        H252   1.083       .  S
C248        C249   1.408       .  A
C248        H253   1.083       .  S
C249        C250   1.412       .  A
C250        H254   1.081       .  S
C255        C256   1.206       .  T
C257        C258   1.206       .  T
C259        C260   1.206       .  T
C261        C262   1.206       .  T
C263        C264   1.411       .  A
C263        C268   1.398   1_565  A
C263        H269   1.081       .  S
C264        C265   1.408       .  A
C265        C266   1.394   1_565  A
C265        H270   1.083       .  S
C266        C267   1.408       .  A
C266        H271   1.083       .  S
C267        C268   1.412       .  A
C268        H272   1.081       .  S
C273        C274   1.205       .  T
C275        C276   1.206       .  T
C277        C278   1.409       .  A
C277        C282   1.394   1_554  A
C277        H283   1.083       .  S
C278        C279   1.411       .  A
C279        C280   1.398   1_554  A
C279        H284   1.081       .  S
C280        C281   1.411       .  A
C280        H285   1.081       .  S
C281        C282   1.409       .  A
C282        H286   1.084       .  S
C287        C288   1.206       .  T
C289        C290   1.206       .  T
C291        C292   1.411       .  A
C291        C296   1.398   1_565  A
C291        H297   1.081       .  S
C292        C293   1.408       .  A
C293        C294   1.394   1_565  A
C293        H298   1.083       .  S
C294        C295   1.408       .  A
C294        H299   1.083       .  S
C295        C296   1.411       .  A
C296        H300   1.081       .  S
C301        C302   1.412       .  A
C301        C306   1.399   1_554  A
C301        H307   1.081       .  S
C302        C303   1.408       .  A
C303        C304   1.393   1_554  A
C303        H308   1.083       .  S
C304        C305   1.408       .  A
C304        H309   1.083       .  S
C305        C306   1.411       .  A
C306        H310   1.081       .  S
C311        C312   1.205       .  T
C313        C314   1.206       .  T
C315        C316   1.206       .  T
C317        C318   1.206       .  T
C319        C320   1.206       .  T
C321        C322   1.408       .  A
C321        C326   1.394   1_655  A
C321        H327   1.083       .  S
C322        C323   1.412       .  A
C323        C324   1.398   1_655  A
C323        H328   1.081       .  S
C324        C325   1.411       .  A
C324        H329   1.081       .  S
C325        C326   1.408       .  A
C326        H330   1.083       .  S
C331        C332   1.206       .  T
C333        C334   1.206       .  T
C335        C336   1.408       .  A
C335        C340   1.394   1_554  A
C335        H341   1.083       .  S
C336        C337   1.412       .  A
C337        C338   1.398   1_554  A
C337        H342   1.081       .  S
C338        C339   1.411       .  A
C338        H343   1.081       .  S
C339        C340   1.408       .  A
C340        H344   1.083       .  S
C345        C346   1.206       .  T
C347        C348   1.206       .  T
C349        C350   1.408       .  A
C349        C354   1.393   1_455  A
C349        H355   1.083       .  S
C350        C351   1.411       .  A
C351        C352   1.399   1_455  A
C351        H356   1.081       .  S
C352        C353   1.412       .  A
C352        H357   1.081       .  S
C353        C354   1.408       .  A
C354        H358   1.083       .  S
C359        C360   1.408       .  A
C359        C364   1.394   1_556  A
C359        H365   1.083       .  S
C360        C361   1.411       .  A
C361        C362   1.398   1_556  A
C361        H366   1.081       .  S
C362        C363   1.412       .  A
C362        H367   1.081       .  S
C363        C364   1.408       .  A
C364        H368   1.083       .  S
C369        C370   1.206       .  T
C371        C372   1.206       .  T
