geometry optimzed in LAMMPS
_audit_creation_date              2020-12-01 
_audit_creation_method            'lammps2cif' 
_symmetry_space_group_name_H-M    'P1' 
_symmetry_Int_Tables_number       1 
_symmetry_cell_setting            triclinic 
loop_ 
_symmetry_equiv_pos_as_xyz 
  x,y,z 
_cell_length_a                    23.37992623 
_cell_length_b                    24.03125888605765 
_cell_length_c                    37.36846010798873 
_cell_angle_alpha                 90.22627667890313 
_cell_angle_beta                  89.24355549512296 
_cell_angle_gamma                 89.9594916898494 
loop_ 
_atom_site_label 
_atom_site_type_symbol 
_atom_site_fract_x 
_atom_site_fract_y 
_atom_site_fract_z 
_atom_site_charge 
N1          N  0.46148205  0.48125969  0.83141322    -0.03100
C2          C  0.42636932  0.51089310  0.85353135    -0.00500
C3          C  0.41400901  0.48098580  0.88412542    -0.23400
C4          C  0.44212350  0.43105998  0.88057220    -0.23600
C5          C  0.47189107  0.43263370  0.84846486    -0.00600
H6          H  0.38715634  0.49393022  0.90645922     0.13200
H7          H  0.44231674  0.39768613  0.89971511     0.13200
Zn8        Zn  0.97410836  0.94722691  0.87335412     1.49700
Zn9        Zn  0.91660075  0.02112126  0.93324915     1.49400
Zn10       Zn  0.05060500  0.99408888  0.93591002     1.49100
Zn11       Zn  0.00240062  0.07741199  0.87680652     1.49500
O12         O  0.98630368  0.01039214  0.90494993    -1.83700
O13         O  0.90753423  0.89943248  0.89028362    -0.74400
O14         O  0.93591382  0.02762995  0.98548767    -0.74200
O15         O  0.09392405  0.92392752  0.92009567    -0.73700
O16         O  0.86562993  0.95342860  0.93111915    -0.74400
O17         O  0.04296390  0.89736824  0.87331691    -0.74000
O18         O  0.02408937  0.99243136  0.98779915    -0.74600
O19         O  0.07587862  0.11683556  0.89340571    -0.73900
O20         O  0.87226041  0.08814091  0.91564807    -0.74700
O21         O  0.10739949  0.05598323  0.93314200    -0.74100
O22         O  0.93463475  0.13055703  0.87958345    -0.74600
O23         O  0.00752143  0.05633513  0.82415296    -0.74500
O24         O  0.96449078  0.97361589  0.82243980    -0.74300
C25         C  0.86848642  0.90773340  0.91383777     0.77500
C26         C  0.97866297  0.01050882  0.00326086     0.78000
C27         C  0.08612558  0.89161825  0.89339321     0.77000
C28         C  0.11298712  0.10151858  0.91620836     0.77400
C29         C  0.88527666  0.12789163  0.89449238     0.78500
C30         C  0.98519026  0.01625625  0.80664149     0.77500
N31         N  0.54349624  0.45928133  0.98059344    -0.03100
C32         C  0.52805191  0.41402948  0.96093210    -0.00500
C33         C  0.56198254  0.40966411  0.93047720    -0.23400
C34         C  0.59864157  0.45409284  0.93071140    -0.23600
C35         C  0.58657406  0.48376878  0.96157792    -0.00600
H36         H  0.55890234  0.37861564  0.90963598     0.13200
H37         H  0.63018416  0.46420011  0.91029801     0.13200
N38         N  0.96317997  0.98049355  0.33133892    -0.03100
C39         C  0.98071160  0.93510002  0.34965320    -0.00500
C40         C  0.94972054  0.93000013  0.38119090    -0.23400
C41         C  0.91339643  0.97484785  0.38307139    -0.23600
C42         C  0.92244467  0.00501871  0.35219198    -0.00600
H43         H  0.95488096  0.89840826  0.40135705     0.13200
H44         H  0.88408205  0.98495060  0.40477733     0.13200
Zn45       Zn  0.51436360  0.59498111  0.37866566     1.49700
Zn46       Zn  0.49849234  0.46289524  0.37082444     1.49400
Zn47       Zn  0.56584918  0.51010761  0.43726680     1.49100
Zn48       Zn  0.43247837  0.52633851  0.43250953     1.49500
O49         O  0.50318896  0.52425717  0.40466906    -1.83700
O50         O  0.52072411  0.58027186  0.32455718    -0.74400
O51         O  0.56872915  0.41486085  0.37306496    -0.74200
O52         O  0.61995278  0.57399695  0.43512217    -0.73700
O53         O  0.49334772  0.49178234  0.32077065    -0.74400
O54         O  0.58544226  0.63626026  0.39717161    -0.74000
O55         O  0.61091800  0.44091895  0.42327967    -0.74600
O56         O  0.44751476  0.53097372  0.48513257    -0.73900
O57         O  0.43149536  0.41235028  0.38165610    -0.74700
O58         O  0.53889834  0.50698742  0.48900409    -0.74100
O59         O  0.38622510  0.45653934  0.42583825    -0.74600
O60         O  0.38551477  0.59206628  0.41851602    -0.74500
O61         O  0.44347003  0.64395507  0.38484805    -0.74300
C62         C  0.50641051  0.53782463  0.30598460     0.77500
C63         C  0.60823769  0.40921510  0.39589230     0.78000
C64         C  0.62323101  0.62089408  0.41953656     0.77000
C65         C  0.49109057  0.51943280  0.50376994     0.77400
C66         C  0.39127960  0.41484269  0.40493608     0.78500
C67         C  0.39512984  0.63578297  0.40024168     0.77500
N68         N  0.05016180  0.98253543  0.48123527    -0.03100
C69         C  0.03105811  0.93447978  0.46633585    -0.00500
C70         C  0.06353744  0.92069734  0.43647085    -0.23400
C71         C  0.10330452  0.96198227  0.43211644    -0.23600
C72         C  0.09439411  0.99931592  0.45989432    -0.00600
H73         H  0.05763304  0.88524800  0.41906912     0.13200
H74         H  0.13438639  0.96501682  0.41049949     0.13200
C75         C  0.35119861  0.36739666  0.40889657    -0.02800
C76         C  0.35386198  0.32205382  0.38511467    -0.05400
C77         C  0.31988814  0.27504296  0.39091279    -0.20500
C78         C  0.28255742  0.27197127  0.42063002     0.25300
C79         C  0.27880447  0.31801397  0.44397342    -0.18000
C80         C  0.31258859  0.36519899  0.43803948    -0.08000
C81         C  0.25112948  0.21889521  0.42683554    -0.18300
C82         C  0.21160846  0.21023804  0.45288419    -0.23100
C83         C  0.18375166  0.15522576  0.45812950     0.27300
C84         C  0.12756048  0.15257356  0.47179983    -0.19900
C85         C  0.09905325  0.10142359  0.47427975    -0.09500
C86         C  0.12663122  0.05209199  0.46344596    -0.10000
C87         C  0.18398657  0.05446802  0.45199349    -0.03000
C88         C  0.21237050  0.10534723  0.44954211    -0.18100
H89         H  0.38309690  0.32234164  0.36239210     0.11000
H90         H  0.32375927  0.24034565  0.37243448     0.11100
H91         H  0.25124922  0.31770567  0.46738185     0.10700
H92         H  0.30969230  0.39932118  0.45699280     0.11800
H93         H  0.26121112  0.18493116  0.40855831     0.11900
H94         H  0.19710713  0.24419727  0.46985687     0.13800
H95         H  0.10491124  0.19035236  0.47916113     0.10400
H96         H  0.05468670  0.10084553  0.48292362     0.12500
H97         H  0.20663857  0.01692960  0.44416363     0.09100
H98         H  0.25656270  0.10543504  0.44058754     0.11800
C99         C  0.67256495  0.65715571  0.42832724    -0.02800
C100        C  0.71978163  0.63396051  0.44583385    -0.05400
C101        C  0.76660970  0.66665693  0.45493292    -0.20500
C102        C  0.76744261  0.72368908  0.44739829     0.25300
C103        C  0.72016059  0.74750498  0.43010698    -0.18000
C104        C  0.67318167  0.71437032  0.42049934    -0.08000
C105        C  0.82029007  0.75520072  0.45592623    -0.18300
C106        C  0.82191793  0.81021440  0.46309985    -0.23100
C107        C  0.87587042  0.84153113  0.47040168     0.27300
C108        C  0.87442728  0.89998220  0.46970151    -0.19900
C109        C  0.92488123  0.93106354  0.47210558    -0.09500
C110        C  0.97785708  0.90437336  0.47562106    -0.10000
C111        C  0.97919248  0.84627669  0.47853250    -0.03000
C112        C  0.92884852  0.81512719  0.47638304    -0.18100
H113        H  0.72097590  0.59006646  0.45224774     0.11000
H114        H  0.80253757  0.64716911  0.46796501     0.11100
H115        H  0.71996316  0.79116567  0.42315278     0.10700
H116        H  0.63739131  0.73345986  0.40713406     0.11800
H117        H  0.85914016  0.73081484  0.45665166     0.11900
H118        H  0.78232492  0.83379748  0.46264138     0.13800
H119        H  0.83455334  0.92164711  0.46513846     0.10400
H120        H  0.92292696  0.97545270  0.46768803     0.12500
H121        H  0.01975649  0.82474461  0.48055583     0.09100
H122        H  0.93259994  0.77052556  0.47840543     0.11800
C123        C  0.34802621  0.67659569  0.39619265    -0.02800
C124        C  0.29530129  0.66738927  0.41364497    -0.05400
C125        C  0.24891303  0.70249900  0.40784791    -0.20500
C126        C  0.25360095  0.74763083  0.38430714     0.25300
C127        C  0.30694361  0.75837412  0.36775784    -0.18000
C128        C  0.35371443  0.72310946  0.37367683    -0.08000
C129        C  0.20106684  0.78082893  0.37776948    -0.18300
C130        C  0.19414131  0.81737574  0.35088823    -0.23100
C131        C  0.13828210  0.84528310  0.34524679     0.27300
C132        C  0.13668968  0.90095097  0.33409144    -0.19900
C133        C  0.08448594  0.92950361  0.33267922    -0.09500
C134        C  0.03318138  0.90246542  0.34204079    -0.10000
C135        C  0.03445308  0.84566410  0.35039434    -0.03000
C136        C  0.08641846  0.81724969  0.35184387    -0.18100
H137        H  0.28932607  0.63222518  0.43135102     0.11000
H138        H  0.20861719  0.69341270  0.42121564     0.11100
H139        H  0.31290950  0.79346978  0.35010653     0.10700
H140        H  0.39389967  0.73159546  0.36005670     0.11800
H141        H  0.16497181  0.77310643  0.39567447     0.11900
H142        H  0.22952954  0.82822227  0.33325697     0.13800
H143        H  0.17605110  0.92317236  0.32842466     0.10400
H144        H  0.08467358  0.97353902  0.32664996     0.12500
H145        H  0.99539012  0.82393623  0.35754185     0.09100
H146        H  0.08601510  0.77368950  0.35908794     0.11800
C147        C  0.65180002  0.36503262  0.39014216    -0.02800
C148        C  0.69303584  0.35388996  0.41614170    -0.05400
C149        C  0.73366422  0.31188606  0.41056924    -0.20500
C150        C  0.73438093  0.28016326  0.37886442     0.25300
C151        C  0.69320055  0.29156361  0.35272942    -0.18000
C152        C  0.65249012  0.33345950  0.35836023    -0.08000
C153        C  0.77719243  0.23440685  0.37527037    -0.18300
C154        C  0.78734732  0.20436773  0.34519821    -0.23100
C155        C  0.82735813  0.15615402  0.34414857     0.27300
C156        C  0.81802481  0.11269338  0.31955743    -0.19900
C157        C  0.85129532  0.06417914  0.32044710    -0.09500
C158        C  0.89451311  0.05885615  0.34579787    -0.10000
C159        C  0.90610368  0.10330518  0.36893133    -0.03000
C160        C  0.87338337  0.15179773  0.36787729    -0.18100
H161        H  0.69370611  0.37733465  0.44094144     0.11000
H162        H  0.76458754  0.30397248  0.43128395     0.11100
H163        H  0.69113322  0.26796387  0.32814483     0.10700
H164        H  0.62132230  0.34095684  0.33774290     0.11800
H165        H  0.80021545  0.22404517  0.39935104     0.11900
H166        H  0.76369920  0.21269069  0.32109186     0.13800
H167        H  0.78333975  0.11527925  0.30070855     0.10400
H168        H  0.84161888  0.02993728  0.30259209     0.12500
H169        H  0.93956799  0.09974685  0.38858104     0.09100
H170        H  0.88378763  0.18521813  0.38611918     0.11800
C171        C  0.52867179  0.46929223  0.01776672    -0.02800
C172        C  0.52498511  0.42422329  0.04146376    -0.05400
C173        C  0.51463017  0.43280881  0.07788123    -0.20500
C174        C  0.50863116  0.48676308  0.09191691     0.25300
C175        C  0.51094076  0.53218948  0.06820604    -0.18000
C176        C  0.52072795  0.52342371  0.03142952    -0.08000
C177        C  0.49985778  0.49252296  0.13132212    -0.18300
C178        C  0.50899322  0.53937225  0.15049481    -0.23100
C179        C  0.50477056  0.54083142  0.19045001     0.27300
C180        C  0.53427522  0.58216644  0.20955284    -0.19900
C181        C  0.53405542  0.58237470  0.24714324    -0.09500
C182        C  0.50446659  0.54100641  0.26634919    -0.10000
C183        C  0.47318017  0.50108689  0.24723997    -0.03000
C184        C  0.47272370  0.50134199  0.20990203    -0.18100
H185        H  0.53173174  0.38210440  0.03192784     0.11000
H186        H  0.51271805  0.39697150  0.09534226     0.11100
H187        H  0.50482149  0.57433772  0.07777003     0.10700
H188        H  0.52181938  0.55887121  0.01375840     0.11800
H189        H  0.48949178  0.45444084  0.14539636     0.11900
H190        H  0.52410097  0.57655195  0.13703040     0.13800
H191        H  0.55866961  0.61358690  0.19536139     0.10400
H192        H  0.55822319  0.61395365  0.26111882     0.12500
H193        H  0.44877337  0.46942947  0.26120411     0.09100
H194        H  0.44695622  0.47040272  0.19660040     0.11800
C195        C  0.82704429  0.86279535  0.92251476    -0.02800
C196        C  0.77704988  0.87435093  0.94255857    -0.05400
C197        C  0.73969601  0.83147494  0.95258014    -0.20500
C198        C  0.75204721  0.77598561  0.94354910     0.25300
C199        C  0.80173730  0.76439183  0.92316504    -0.18000
C200        C  0.83868207  0.80735570  0.91268631    -0.08000
C201        C  0.71085691  0.73155882  0.95401802    -0.18300
C202        C  0.72685793  0.67854755  0.96008957    -0.23100
C203        C  0.68611902  0.63193359  0.96681509     0.27300
C204        C  0.70733373  0.58178988  0.98067622    -0.19900
C205        C  0.67290020  0.53420926  0.98219523    -0.09500
C206        C  0.61649927  0.53599951  0.97007743    -0.10000
C207        C  0.59431500  0.58639990  0.95756048    -0.03000
C208        C  0.62859876  0.63406315  0.95607494    -0.18100
H209        H  0.76679722  0.91659237  0.95054880     0.11000
H210        H  0.70134169  0.84160545  0.96784993     0.11100
H211        H  0.81173331  0.72231974  0.91475759     0.10700
H212        H  0.87689844  0.79700996  0.89736066     0.11800
H213        H  0.66638910  0.74354178  0.95755554     0.11900
H214        H  0.77215194  0.66841714  0.95978589     0.13800
H215        H  0.75152469  0.57872124  0.98880131     0.10400
H216        H  0.69128589  0.49518746  0.99082753     0.12500
H217        H  0.55153179  0.58792924  0.94680382     0.09100
H218        H  0.61083479  0.67115661  0.94429436     0.11800
C219        C  0.47657492  0.37888803  0.96671007    -0.02800
C220        C  0.42341777  0.40340092  0.97482192    -0.05400
C221        C  0.37278360  0.37271805  0.97122615    -0.20500
C222        C  0.37427311  0.31677011  0.96002779     0.25300
C223        C  0.42797393  0.29167373  0.95366444    -0.18000
C224        C  0.47836078  0.32240391  0.95701634    -0.08000
C225        C  0.31934368  0.28735324  0.95257280    -0.18300
C226        C  0.31471274  0.23145906  0.95081167    -0.23100
C227        C  0.26134271  0.20073580  0.94180064     0.27300
C228        C  0.25789825  0.14439550  0.95114932    -0.19900
C229        C  0.20997554  0.11273060  0.94257350    -0.09500
C230        C  0.16406371  0.13625877  0.92392084    -0.10000
C231        C  0.16754435  0.19254605  0.91395683    -0.03000
C232        C  0.21566930  0.22460402  0.92287471    -0.18100
H233        H  0.42070579  0.44725335  0.98139176     0.11000
H234        H  0.33216407  0.39333153  0.97602249     0.11100
H235        H  0.43155464  0.24930682  0.94410423     0.10700
H236        H  0.51876984  0.30274783  0.95013272     0.11800
H237        H  0.28152020  0.31282745  0.94895477     0.11900
H238        H  0.35143647  0.20612455  0.95753726     0.13800
H239        H  0.29252461  0.12464192  0.96534345     0.10400
H240        H  0.20911479  0.06944741  0.95050337     0.12500
H241        H  0.13294647  0.21187473  0.89954325     0.09100
H242        H  0.21727055  0.26750965  0.91434798     0.11800
C243        C  0.04381135  0.99717585  0.51853694    -0.02800
C244        C  0.09102914  0.99205331  0.54108230    -0.05400
C245        C  0.08592272  0.00390109  0.57754765    -0.20500
C246        C  0.03322139  0.02027039  0.59251642     0.25300
C247        C  0.98601661  0.02679203  0.56986182    -0.18000
C248        C  0.99141927  0.01554264  0.53309213    -0.08000
C249        C  0.02980281  0.02994815  0.63178319    -0.18300
C250        C  0.98208187  0.02142662  0.65159146    -0.23100
C251        C  0.98194061  0.02302815  0.69141528     0.27300
C252        C  0.94315169  0.98928522  0.71036940    -0.19900
C253        C  0.94420509  0.98694958  0.74777223    -0.09500
C254        C  0.98334200  0.01931285  0.76707069    -0.10000
C255        C  0.02074585  0.05467382  0.74818582    -0.03000
C256        C  0.02019674  0.05645867  0.71077385    -0.18100
H257        H  0.13184926  0.97803056  0.53037857     0.11000
H258        H  0.12302960  0.99895443  0.59429761     0.11100
H259        H  0.94521704  0.04114722  0.58036110     0.10700
H260        H  0.95501044  0.02188688  0.51617002     0.11800
H261        H  0.06971453  0.03867385  0.64521274     0.11900
H262        H  0.94345028  0.00728280  0.63856850     0.13800
H263        H  0.91286589  0.96357376  0.69614178     0.10400
H264        H  0.91430489  0.95986528  0.76159735     0.12500
H265        H  0.05109847  0.08040608  0.76232196     0.09100
H266        H  0.04957370  0.08425306  0.69717151     0.11800
C267        C  0.97468768  0.01043350  0.04275562    -0.02800
C268        C  0.92136700  0.00337856  0.05987359    -0.05400
C269        C  0.91755060  0.99968772  0.09712016    -0.20500
C270        C  0.96662353  0.00466534  0.11806455     0.25300
C271        C  0.01991855  0.01311471  0.10106143    -0.18000
C272        C  0.02394431  0.01544261  0.06366900    -0.08000
C273        C  0.96129906  0.99645081  0.15723124    -0.18300
C274        C  0.99462717  0.02223041  0.18125418    -0.23100
C275        C  0.98856499  0.01124892  0.22014597     0.27300
C276        C  0.99494903  0.05475341  0.24499680    -0.19900
C277        C  0.98737091  0.04495049  0.28172546    -0.09500
C278        C  0.97453634  0.99122318  0.29404084    -0.10000
C279        C  0.97014708  0.94751642  0.26922383    -0.03000
C280        C  0.97696273  0.95734818  0.23268847    -0.18100
H281        H  0.88278903  0.99894499  0.04438011     0.11000
H282        H  0.87614316  0.99261870  0.10964128     0.11100
H283        H  0.05865739  0.01592128  0.11650792     0.10700
H284        H  0.06554694  0.02091243  0.05108352     0.11800
H285        H  0.92703266  0.96949794  0.16671873     0.11900
H286        H  0.02498583  0.05369073  0.17245066     0.13800
H287        H  0.00449158  0.09651109  0.23590011     0.10400
H288        H  0.99140965  0.07910233  0.30048563     0.12500
H289        H  0.96007150  0.90581643  0.27818143     0.09100
H290        H  0.97329614  0.92269483  0.21425989     0.11800
C291        C  0.48547521  0.51997208  0.54329731    -0.02800
C292        C  0.43098739  0.52036166  0.55963662    -0.05400
C293        C  0.42515024  0.51818743  0.59682628    -0.20500
C294        C  0.47351015  0.51666011  0.61859726     0.25300
C295        C  0.52817276  0.51759575  0.60241606    -0.18000
C296        C  0.53405502  0.51901686  0.56508043    -0.08000
C297        C  0.46501884  0.50920202  0.65767585    -0.18300
C298        C  0.50271163  0.52559158  0.68251700    -0.23100
C299        C  0.49294934  0.51391177  0.72107357     0.27300
C300        C  0.50947575  0.55287815  0.74709287    -0.19900
C301        C  0.49912701  0.54254622  0.78352237    -0.09500
C302        C  0.47363985  0.49242336  0.79432828    -0.10000
C303        C  0.45859098  0.45295075  0.76838894    -0.03000
C304        C  0.46796580  0.46355525  0.73214680    -0.18100
H305        H  0.39268260  0.52097188  0.54364785     0.11000
H306        H  0.38260725  0.51708702  0.60865106     0.11100
H307        H  0.56635376  0.51520518  0.61839950     0.10700
H308        H  0.57659202  0.51879495  0.55326430     0.11800
H309        H  0.42504410  0.49027331  0.66642356     0.11900
H310        H  0.54011803  0.54963519  0.67473938     0.13800
H311        H  0.52933201  0.59169658  0.73915613     0.10400
H312        H  0.51122912  0.57328319  0.80327455     0.12500
H313        H  0.43874682  0.41412349  0.77630315     0.09100
H314        H  0.45614844  0.43204648  0.71282169     0.11800
C315        C  0.84135147  0.17049289  0.88580429    -0.02800
C316        C  0.85579112  0.21812272  0.86583977    -0.05400
C317        C  0.81355677  0.25622179  0.85573513    -0.20500
C318        C  0.75579396  0.24713635  0.86470825     0.25300
C319        C  0.74148869  0.20008088  0.88528916    -0.18000
C320        C  0.78371814  0.16232478  0.89569719    -0.08000
C321        C  0.71189790  0.28868134  0.85379832    -0.18300
C322        C  0.65663562  0.27512557  0.84826990    -0.23100
C323        C  0.60964841  0.31584220  0.84156426     0.27300
C324        C  0.55296125  0.29743238  0.84598249    -0.19900
C325        C  0.50731456  0.33493949  0.84506376    -0.09500
C326        C  0.51714157  0.39171602  0.83905534    -0.09000
C327        C  0.57315323  0.40974387  0.83161713    -0.03000
C328        C  0.61913122  0.37224281  0.83296257    -0.18100
H329        H  0.89974982  0.22583529  0.85781137     0.11000
H330        H  0.82593226  0.29250485  0.84038582     0.11100
H331        H  0.69781741  0.19261550  0.89391588     0.10700
H332        H  0.77099992  0.12623480  0.91110538     0.11800
H333        H  0.72605396  0.33130910  0.85058951     0.11900
H334        H  0.64417792  0.23177352  0.85062077     0.13800
H335        H  0.54407518  0.25428263  0.85222863     0.10400
H336        H  0.46453585  0.32012238  0.85110782     0.12500
H337        H  0.58187992  0.45351500  0.82742085     0.09100
H338        H  0.66177553  0.38819357  0.82840046     0.11800
C339        C  0.40269155  0.56677020  0.84714539    -0.02800
C340        C  0.42074620  0.61121951  0.86859883    -0.05400
C341        C  0.38990636  0.66106123  0.86958880    -0.20500
C342        C  0.33953979  0.66678980  0.84992564     0.25300
C343        C  0.32355739  0.62334680  0.82660759    -0.18000
C344        C  0.35495928  0.57362656  0.82531153    -0.08000
C345        C  0.30331357  0.71699917  0.85622236    -0.18300
C346        C  0.24580407  0.71569189  0.85417752    -0.23100
C347        C  0.20713038  0.76262441  0.86446523     0.27300
C348        C  0.15078822  0.76144043  0.85206955    -0.19900
C349        C  0.11178589  0.80300734  0.86180054    -0.09500
C350        C  0.12776736  0.84669234  0.88469449    -0.10000
C351        C  0.18392401  0.84769331  0.89771016    -0.03000
C352        C  0.22334670  0.80617891  0.88763119    -0.18100
H353        H  0.45711909  0.60628044  0.88597517     0.11000
H354        H  0.40348902  0.69395944  0.88746000     0.11100
H355        H  0.28604093  0.62698420  0.81013477     0.10700
H356        H  0.34014666  0.53945262  0.80888201     0.11800
H357        H  0.32442882  0.75439588  0.86557182     0.11900
H358        H  0.22527369  0.67769212  0.84524477     0.13800
H359        H  0.13682325  0.72817314  0.83459892     0.10400
H360        H  0.06881563  0.80074345  0.85142299     0.12500
H361        H  0.19754336  0.88085502  0.91535538     0.09100
H362        H  0.26583807  0.80792224  0.89863471     0.11800
loop_ 
_geom_bond_atom_site_label_1 
_geom_bond_atom_site_label_2 
_geom_bond_distance 
_geom_bond_site_symmetry_2 
_ccdc_geom_bond_type 
N1            C5   1.357       .  A
N1            C2   1.357       .  A
N1          C302   1.437       .  S
C2            C3   1.380       .  A
C2          C339   1.474       .  S
C3            C4   1.373       .  A
C3            H6   1.082       .  S
C4            C5   1.380       .  A
C4            H7   1.077       .  S
C5          C326   1.482       .  S
Zn8          O12   1.943   1_565  S
Zn8          O13   2.031       .  S
Zn8          O17   2.006   1_655  S
Zn8          O24   2.023       .  S
Zn9          O12   1.947       .  S
Zn9          O14   2.015       .  S
Zn9          O16   2.019   1_545  S
Zn9          O20   2.031       .  S
Zn10         O12   1.950   1_465  S
Zn10         O15   2.047       .  S
Zn10         O18   2.028       .  S
Zn10         O21   1.997   1_565  S
Zn11         O12   1.961   1_455  S
Zn11         O19   2.064       .  S
Zn11         O22   2.036   1_455  S
Zn11         O23   2.032       .  S
O13          C25   1.275       .  A
O14          C26   1.276   1_556  A
O15          C27   1.277       .  A
O16          C25   1.273       .  A
O17          C27   1.273       .  A
O18          C26   1.277   1_466  A
O19          C28   1.279       .  A
O20          C29   1.277       .  A
O21          C28   1.272       .  A
O22          C29   1.277       .  A
O23          C30   1.278   1_455  A
O24          C30   1.277   1_565  A
C25         C195   1.485       .  S
C26         C267   1.478       .  S
C27         C350   1.485       .  S
C28         C230   1.488       .  S
C29         C315   1.489       .  S
C30         C254   1.482       .  S
N31          C35   1.360       .  A
N31          C32   1.362       .  A
N31         C171   1.446   1_556  S
C32          C33   1.382       .  A
C32         C219   1.485       .  S
C33          C34   1.370       .  A
C33          H36   1.080       .  S
C34          C35   1.380       .  A
C34          H37   1.082       .  S
C35         C206   1.473       .  S
N38          C42   1.356   1_565  A
N38          C39   1.356       .  A
N38         C278   1.440       .  S
C39          C40   1.381       .  A
C39         C134   1.479   1_655  S
C40          C41   1.373       .  A
C40          H43   1.080       .  S
C41          C42   1.379   1_565  A
C41          H44   1.082       .  S
C42         C158   1.471       .  S
Zn45         O49   1.977       .  S
Zn45         O50   2.055       .  S
Zn45         O54   2.062       .  S
Zn45         O61   2.042       .  S
Zn46         O49   1.943       .  S
Zn46         O51   2.009       .  S
Zn46         O53   2.003       .  S
Zn46         O57   2.021       .  S
Zn47         O49   1.948       .  S
Zn47         O52   1.991       .  S
Zn47         O55   2.031       .  S
Zn47         O58   2.027       .  S
Zn48         O49   1.942       .  S
Zn48         O56   2.005       .  S
Zn48         O59   2.013       .  S
Zn48         O60   1.998       .  S
O50          C62   1.279       .  A
O51          C63   1.273       .  A
O52          C64   1.273       .  A
O53          C62   1.274       .  A
O54          C64   1.279       .  A
O55          C63   1.276       .  A
O56          C65   1.273       .  A
O57          C66   1.274       .  A
O58          C65   1.275       .  A
O59          C66   1.273       .  A
O60          C67   1.274       .  A
O61          C67   1.277       .  A
C62         C182   1.485       .  S
C63         C147   1.484       .  S
C64          C99   1.486       .  S
C65         C291   1.481       .  S
C66          C75   1.483       .  S
C67         C123   1.484       .  S
N68          C72   1.360       .  A
N68          C69   1.358       .  A
N68         C243   1.442       .  S
C69          C70   1.381       .  A
C69         C110   1.477   1_455  S
C70          C71   1.369       .  A
C70          H73   1.080       .  S
C71          C72   1.383       .  A
C71          H74   1.082       .  S
C72          C86   1.482   1_565  S
C75          C76   1.404       .  A
C75          C80   1.406       .  A
C76          C77   1.397       .  A
C76          H89   1.083       .  S
C77          C78   1.406       .  A
C77          H90   1.083       .  S
C78          C79   1.408       .  A
C78          C81   1.490       .  S
C79          C80   1.399       .  A
C79          H91   1.080       .  S
C80          H92   1.083       .  S
C81          C82   1.350       .  D
C81          H93   1.086       .  S
C82          C83   1.487       .  S
C82          H94   1.083       .  S
C83          C84   1.405       .  A
C83          C88   1.406       .  A
C84          C85   1.401       .  A
C84          H95   1.083       .  S
C85          C86   1.405       .  A
C85          H96   1.082       .  S
C86          C87   1.403       .  A
C87          C88   1.394       .  A
C87          H97   1.083       .  S
C88          H98   1.082       .  S
C99         C100   1.407       .  A
C99         C104   1.407       .  A
C100        C101   1.393       .  A
C100        H113   1.083       .  S
C101        C102   1.400       .  A
C101        H114   1.084       .  S
C102        C103   1.410       .  A
C102        C105   1.487       .  S
C103        C104   1.407       .  A
C103        H115   1.082       .  S
C104        H116   1.083       .  S
C105        C106   1.349       .  D
C105        H117   1.081       .  S
C106        C107   1.497       .  S
C106        H118   1.085       .  S
C107        C108   1.405       .  A
C107        C112   1.412       .  A
C108        C109   1.400       .  A
C108        H119   1.083       .  S
C109        C110   1.402       .  A
C109        H120   1.081       .  S
C110        C111   1.401       .  A
C111        C112   1.398       .  A
C111        H121   1.084   1_655  S
C112        H122   1.078       .  S
C123        C124   1.405       .  A
C123        C128   1.407       .  A
C124        C125   1.393       .  A
C124        H137   1.083       .  S
C125        C126   1.403       .  A
C125        H138   1.083       .  S
C126        C127   1.409       .  A
C126        C129   1.488       .  S
C127        C128   1.403       .  A
C127        H139   1.081       .  S
C128        H140   1.083       .  S
C129        C130   1.348       .  D
C129        H141   1.087       .  S
C130        C131   1.486       .  S
C130        H142   1.083       .  S
C131        C132   1.403       .  A
C131        C136   1.407       .  A
C132        C133   1.401       .  A
C132        H143   1.083       .  S
C133        C134   1.405       .  A
C133        H144   1.083       .  S
C134        C135   1.402       .  A
C135        C136   1.395       .  A
C135        H145   1.083   1_455  S
C136        H146   1.082       .  S
C147        C148   1.404       .  A
C147        C152   1.407       .  A
C148        C149   1.399       .  A
C148        H161   1.083       .  S
C149        C150   1.406       .  A
C149        H162   1.083       .  S
C150        C151   1.408       .  A
C150        C153   1.491       .  S
C151        C152   1.398       .  A
C151        H163   1.079       .  S
C152        H164   1.083       .  S
C153        C154   1.352       .  D
C153        H165   1.084       .  S
C154        C155   1.489       .  S
C154        H166   1.082       .  S
C155        C156   1.407       .  A
C155        C160   1.407       .  A
C156        C157   1.402       .  A
C156        H167   1.083       .  S
C157        C158   1.400       .  A
C157        H168   1.083       .  S
C158        C159   1.400       .  A
C159        C160   1.395       .  A
C159        H169   1.084       .  S
C160        H170   1.081       .  S
C171        C172   1.404       .  A
C171        C176   1.407       .  A
C172        C173   1.394       .  A
C172        H185   1.082       .  S
C173        C174   1.403       .  A
C173        H186   1.083       .  S
C174        C175   1.409       .  A
C174        C177   1.490       .  S
C175        C176   1.405       .  A
C175        H187   1.082       .  S
C176        H188   1.080       .  S
C177        C178   1.351       .  D
C177        H189   1.083       .  S
C178        C179   1.495       .  S
C178        H190   1.084       .  S
C179        C180   1.407       .  A
C179        C184   1.408       .  A
C180        C181   1.405       .  A
C180        H191   1.083       .  S
C181        C182   1.406       .  A
C181        H192   1.083       .  S
C182        C183   1.405       .  A
C183        C184   1.395       .  A
C183        H193   1.083       .  S
C184        H194   1.081       .  S
C195        C196   1.407       .  A
C195        C200   1.406       .  A
C196        C197   1.400       .  A
C196        H209   1.083       .  S
C197        C198   1.403       .  A
C197        H210   1.084       .  S
C198        C199   1.408       .  A
C198        C201   1.488       .  S
C199        C200   1.400       .  A
C199        H211   1.082       .  S
C200        H212   1.083       .  S
C201        C202   1.348       .  D
C201        H213   1.085       .  S
C202        C203   1.491       .  S
C202        H214   1.086       .  S
C203        C204   1.406       .  A
C203        C208   1.409       .  A
C204        C205   1.400       .  A
C204        H215   1.083       .  S
C205        C206   1.401       .  A
C205        H216   1.083       .  S
C206        C207   1.402       .  A
C207        C208   1.399       .  A
C207        H217   1.084       .  S
C208        H218   1.081       .  S
C219        C220   1.404       .  A
C219        C224   1.404       .  A
C220        C221   1.403       .  A
C220        H233   1.083       .  S
C221        C222   1.407       .  A
C221        H234   1.083       .  S
C222        C223   1.409       .  A
C222        C225   1.495       .  S
C223        C224   1.398       .  A
C223        H235   1.080       .  S
C224        H236   1.083       .  S
C225        C226   1.349       .  D
C225        H237   1.085       .  S
C226        C227   1.492       .  S
C226        H238   1.085       .  S
C227        C228   1.402       .  A
C227        C232   1.411       .  A
C228        C229   1.395       .  A
C228        H239   1.084       .  S
C229        C230   1.407       .  A
C229        H240   1.083       .  S
C230        C231   1.407       .  A
C231        C232   1.407       .  A
C231        H241   1.083       .  S
C232        H242   1.081       .  S
C243        C244   1.403       .  A
C243        C248   1.404   1_465  A
C244        C245   1.395   1_565  A
C244        H257   1.083       .  S
C245        C246   1.402       .  A
C245        H258   1.083   1_545  S
C246        C247   1.409   1_455  A
C246        C249   1.486       .  S
C247        C248   1.403       .  A
C247        H259   1.082       .  S
C248        H260   1.078       .  S
C249        C250   1.347   1_455  D
C249        H261   1.086       .  S
C250        C251   1.488       .  S
C250        H262   1.086       .  S
C251        C252   1.404   1_545  A
C251        C256   1.408   1_655  A
C252        C253   1.400       .  A
C252        H263   1.083       .  S
C253        C254   1.406   1_565  A
C253        H264   1.083       .  S
C254        C255   1.405   1_655  A
C255        C256   1.399       .  A
C255        H265   1.083       .  S
C256        H266   1.082       .  S
C267        C268   1.404       .  A
C267        C272   1.405   1_655  A
C268        C269   1.397   1_545  A
C268        H281   1.083   1_545  S
C269        C270   1.402   1_565  A
C269        H282   1.083       .  S
C270        C271   1.406   1_655  A
C270        C273   1.481   1_545  S
C271        C272   1.401       .  A
C271        H283   1.082       .  S
C272        H284   1.083       .  S
C273        C274   1.346   1_565  D
C273        H285   1.087       .  S
C274        C275   1.483       .  S
C274        H286   1.086   1_655  S
C275        C276   1.405       .  A
C275        C280   1.405   1_545  A
C276        C277   1.402       .  A
C276        H287   1.083   1_655  S
C277        C278   1.404   1_545  A
C277        H288   1.082       .  S
C278        C279   1.403       .  A
C279        C280   1.394       .  A
C279        H289   1.083       .  S
C280        H290   1.083       .  S
C291        C292   1.405       .  A
C291        C296   1.406       .  A
C292        C293   1.396       .  A
C292        H305   1.083       .  S
C293        C294   1.402       .  A
C293        H306   1.083       .  S
C294        C295   1.407       .  A
C294        C297   1.483       .  S
C295        C296   1.401       .  A
C295        H307   1.082       .  S
C296        H308   1.083       .  S
C297        C298   1.346       .  D
C297        H309   1.087       .  S
C298        C299   1.484       .  S
C298        H310   1.086       .  S
C299        C300   1.405       .  A
C299        C304   1.405       .  A
C300        C301   1.403       .  A
C300        H311   1.083       .  S
C301        C302   1.403       .  A
C301        H312   1.083       .  S
C302        C303   1.402       .  A
C303        C304   1.394       .  A
C303        H313   1.083       .  S
C304        H314   1.083       .  S
C315        C316   1.408       .  A
C315        C320   1.407       .  A
C316        C317   1.403       .  A
C316        H329   1.083       .  S
C317        C318   1.405       .  A
C317        H330   1.083       .  S
C318        C319   1.408       .  A
C318        C321   1.493       .  S
C319        C320   1.400       .  A
C319        H331   1.082       .  S
C320        H332   1.083       .  S
C321        C322   1.351       .  D
C321        H333   1.083       .  S
C322        C323   1.495       .  S
C322        H334   1.086       .  S
C323        C324   1.405       .  A
C323        C328   1.411       .  A
C324        C325   1.397       .  A
C324        H335   1.083       .  S
C325        C326   1.402       .  A
C325        H336   1.083       .  S
C326        C327   1.404       .  A
C327        C328   1.404       .  A
C327        H337   1.083       .  S
C328        H338   1.080       .  S
C339        C340   1.402       .  A
C339        C344   1.401       .  A
C340        C341   1.398       .  A
C340        H353   1.083       .  S
C341        C342   1.403       .  A
C341        H354   1.083       .  S
C342        C343   1.411       .  A
C342        C345   1.490       .  S
C343        C344   1.402       .  A
C343        H355   1.082       .  S
C344        H356   1.083       .  S
C345        C346   1.348       .  D
C345        H357   1.084       .  S
C346        C347   1.491       .  S
C346        H358   1.085       .  S
C347        C348   1.402       .  A
C347        C352   1.411       .  A
C348        C349   1.396       .  A
C348        H359   1.083       .  S
C349        C350   1.406       .  A
C349        H360   1.083       .  S
C350        C351   1.406       .  A
C351        C352   1.405       .  A
C351        H361   1.083       .  S
C352        H362   1.081       .  S
