geometry optimzed in LAMMPS
_audit_creation_date              2020-12-01 
_audit_creation_method            'lammps2cif' 
_symmetry_space_group_name_H-M    'P1' 
_symmetry_Int_Tables_number       1 
_symmetry_cell_setting            triclinic 
loop_ 
_symmetry_equiv_pos_as_xyz 
  x,y,z 
_cell_length_a                    26.56347826 
_cell_length_b                    26.06028687662992 
_cell_length_c                    23.427784507696153 
_cell_angle_alpha                 86.17741036689146 
_cell_angle_beta                  90.10493726092871 
_cell_angle_gamma                 89.99740980196795 
loop_ 
_atom_site_label 
_atom_site_type_symbol 
_atom_site_fract_x 
_atom_site_fract_y 
_atom_site_fract_z 
_atom_site_charge 
C1          C  0.53078612  0.46466217  0.41540185     0.88400
C2          C  0.49829369  0.43250396  0.95876904    -0.51900
C3          C  0.46808276  0.46061402  0.99196615     0.11300
C4          C  0.47446536  0.51965664  0.97997892     0.22200
C5          C  0.49248837  0.49989210  0.38135103    -0.52600
C6          C  0.46288032  0.52852448  0.41566816     0.11400
C7          C  0.56058859  0.50106575  0.45113748    -0.52100
C8          C  0.53182264  0.53090669  0.98394191     0.12000
H9          H  0.49700985  0.39074961  0.96027103     0.16500
H10         H  0.45083715  0.54305187  0.00748859     0.02200
H11         H  0.48946976  0.50224373  0.33504106     0.16800
H12         H  0.60106963  0.50533261  0.94811903     0.16600
N13         N  0.20722582  0.83578056  0.32672173    -0.25400
N14         N  0.21823439  0.88190965  0.34415208    -0.33300
C15         C  0.18139943  0.91543667  0.32845033     0.02900
C16         C  0.14468648  0.89022663  0.29968823     0.08900
C17         C  0.16217251  0.83964644  0.29911201    -0.04200
H18         H  0.18131034  0.95554688  0.33776508     0.09600
H19         H  0.14337048  0.80804360  0.28017916     0.10800
Cu20       Cu  0.28111992  0.90092704  0.39086001     0.44200
Cu21       Cu  0.25544053  0.76973345  0.34342545     0.42000
Cu22       Cu  0.35253823  0.79709946  0.44651750     0.43900
N23         N  0.34319374  0.91096703  0.44259774    -0.32800
N24         N  0.36883992  0.87114909  0.46490850    -0.27100
C25         C  0.40942061  0.88780111  0.49242654    -0.03200
C26         C  0.40909790  0.94074178  0.48737726     0.09100
C27         C  0.36682568  0.95445932  0.45536374     0.02900
H28         H  0.43880833  0.86318546  0.51097225     0.10500
H29         H  0.35580675  0.99283144  0.43956808     0.09600
N30         N  0.34605068  0.72722333  0.41166274    -0.34300
N31         N  0.31264310  0.71530131  0.37264983    -0.26400
C32         C  0.32397004  0.66717002  0.35723892    -0.01700
C33         C  0.36628701  0.64916518  0.38823000     0.06900
C34         C  0.37867388  0.68838617  0.42195606     0.05000
H35         H  0.30368091  0.64717974  0.32536337     0.10100
H36         H  0.41030841  0.68933987  0.45109051     0.09000
N37         N  0.80555732  0.18745101  0.32487076    -0.25400
N38         N  0.80255665  0.14434146  0.35818429    -0.33300
C39         C  0.83870483  0.11131852  0.34455643     0.02900
C40         C  0.86670413  0.13324914  0.30021544     0.08900
C41         C  0.84468828  0.18172892  0.28825205    -0.04200
H42         H  0.84279211  0.07274303  0.36411287     0.09600
H43         H  0.85544895  0.20991413  0.25447148     0.10800
Cu44       Cu  0.74751711  0.12482048  0.41756817     0.44200
Cu45       Cu  0.75284518  0.25034372  0.33273065     0.42000
Cu46       Cu  0.67867425  0.22362100  0.46309228     0.44300
N47         N  0.68675396  0.11075251  0.47080284    -0.32800
N48         N  0.66145856  0.14945602  0.49003488    -0.27100
C49         C  0.61831329  0.13195981  0.51384774    -0.03200
C50         C  0.61667436  0.07948680  0.50960992     0.09100
C51         C  0.66050726  0.06710936  0.48189295     0.02900
H52         H  0.58788006  0.15625905  0.52669886     0.10500
H53         H  0.66987419  0.03045599  0.46549841     0.09600
N54         N  0.67133429  0.28943856  0.41122821    -0.34300
N55         N  0.69433004  0.30057160  0.36180340    -0.26400
C56         C  0.67239769  0.34422194  0.33776130    -0.01700
C57         C  0.63422258  0.35976143  0.37426294     0.06900
C58         C  0.63534102  0.32405908  0.41983942     0.05000
H59         H  0.68257124  0.36259679  0.29666165     0.10100
H60         H  0.61019283  0.32208361  0.45620122     0.09000
N61         N  0.28557591  0.33165010  0.09782515    -0.25400
N62         N  0.27609178  0.37513312  0.12229013    -0.33300
C63         C  0.31286624  0.40948502  0.10905060     0.02900
C64         C  0.34766004  0.38739436  0.07463213     0.08900
C65         C  0.32926584  0.33796891  0.06822652    -0.04200
H66         H  0.31375447  0.44824063  0.12296391     0.09600
H67         H  0.34607407  0.30906058  0.04322286     0.10800
Cu68       Cu  0.21383218  0.38965530  0.17273891     0.44200
Cu69       Cu  0.23706839  0.26570994  0.10531169     0.42000
Cu70       Cu  0.14316014  0.28107750  0.21406541     0.43900
N71         N  0.15063238  0.39359571  0.22461378    -0.32800
N72         N  0.12566454  0.35161088  0.24170122    -0.27100
C73         C  0.08375885  0.36439609  0.26929106    -0.03200
C74         C  0.08236954  0.41711225  0.26995818     0.09100
C75         C  0.12507159  0.43474466  0.24104220     0.02900
H76         H  0.05439067  0.33763710  0.28313154     0.10500
H77         H  0.13479914  0.47434455  0.22913787     0.09600
N78         N  0.14697848  0.21750959  0.16768480    -0.34300
N79         N  0.17937719  0.21014981  0.12617627    -0.26400
C80         C  0.16635995  0.16564014  0.10274424    -0.01700
C81         C  0.12388821  0.14537508  0.13130368     0.06900
C82         C  0.11314757  0.17933772  0.17182040     0.05000
H83         H  0.18557369  0.14980748  0.06728833     0.10100
H84         H  0.08195418  0.17727692  0.20150316     0.09000
N85         N  0.69401279  0.67876765  0.07402471    -0.25400
N86         N  0.69694633  0.63678296  0.10925179    -0.33300
C87         C  0.65768017  0.60575407  0.10065618     0.02900
C88         C  0.62783454  0.62811425  0.05803111     0.08900
C89         C  0.65198956  0.67436744  0.04145179    -0.04200
H90         H  0.65244014  0.56827291  0.12250152     0.09600
H91         H  0.64055109  0.70198338  0.00735704     0.10800
Cu92       Cu  0.75456377  0.61572254  0.16557412     0.44200
Cu93       Cu  0.74919122  0.73949083  0.07249065     0.42000
Cu94       Cu  0.85059682  0.70231901  0.17034960     0.43900
N95         N  0.81797147  0.59887792  0.21460609    -0.32800
N96         N  0.85391539  0.63346471  0.21697165    -0.27100
C97         C  0.89344143  0.61289947  0.24576680    -0.03200
C98         C  0.88185314  0.56264067  0.26230963     0.09100
C99         C  0.83383325  0.55451875  0.24160759     0.02900
H100        H  0.92948513  0.63162719  0.24957299     0.10500
H101        H  0.81378255  0.51837811  0.24200489     0.09600
N102        N  0.84879535  0.77122916  0.12376192    -0.34300
N103        N  0.81241465  0.78816999  0.08872706    -0.26400
C104        C  0.82353791  0.83783528  0.07155895    -0.01700
C105        C  0.86904414  0.85116566  0.09705582     0.06900
C106        C  0.88334427  0.80792933  0.12946081     0.05000
H107        H  0.79967920  0.86277996  0.04455875     0.10100
H108        H  0.91548103  0.80409040  0.15785120     0.09000
C109        C  0.95567768  0.96654090  0.14930037     0.88400
C110        C  0.92609846  0.00301033  0.18531392    -0.51900
C111        C  0.95519080  0.03235143  0.21830888     0.11300
C112        C  0.01251993  0.02069491  0.21363084     0.22200
C113        C  0.99374617  0.00149687  0.11507813    -0.52600
C114        C  0.02369179  0.02975381  0.14926147     0.11400
C115        C  0.98829842  0.93388591  0.19199329    -0.52100
C116        C  0.01908277  0.96157935  0.22498132     0.12000
H117        H  0.88541348  0.00708225  0.18275660     0.16500
H118        H  0.03666215  0.04383149  0.24096371     0.02200
H119        H  0.99674698  0.00354594  0.06877418     0.16800
H120        H  0.98997400  0.89217381  0.19253401     0.16600
C121        C  0.92213254  0.93400707  0.11573852    -0.11400
C122        C  0.89479041  0.90018792  0.09995977    -0.13000
C123        C  0.03891282  0.44656543  0.28351038    -0.16600
C124        C  0.00017244  0.46957352  0.28936181     0.07400
C125        C  0.95471390  0.49741964  0.28856627     0.09300
C126        C  0.91845617  0.52463581  0.28057384    -0.17500
C127        C  0.06255359  0.06589114  0.12872546    -0.11400
C128        C  0.09373557  0.09998209  0.12297650    -0.13000
C129        C  0.90524033  0.10552348  0.26996201    -0.11400
C130        C  0.93219129  0.07437337  0.24793639    -0.13000
C131        C  0.45031758  0.97323873  0.50120605    -0.16600
C132        C  0.48775808  0.99769294  0.50953314     0.07400
C133        C  0.53326672  0.02475063  0.51484874     0.09300
C134        C  0.57211946  0.04850919  0.51509055    -0.17500
C135        C  0.06187218  0.93652613  0.25522607    -0.11400
C136        C  0.09860400  0.91378989  0.27569907    -0.13000
C137        C  0.42709443  0.43585140  0.02537770    -0.11400
C138        C  0.39176367  0.41288752  0.04848271    -0.13000
C139        C  0.55584265  0.57254251  0.01274067    -0.11400
C140        C  0.58548328  0.60239297  0.03245838    -0.13000
C141        C  0.59797430  0.40203122  0.36992572    -0.11400
C142        C  0.56554058  0.43252643  0.38252884    -0.13000
C143        C  0.39513848  0.60157006  0.38679046    -0.11400
C144        C  0.42493636  0.56619658  0.39505759    -0.13000
C145        C  0.53053633  0.46480467  0.91546895     0.88400
C146        C  0.49841004  0.43226059  0.45848674    -0.51900
C147        C  0.46817412  0.46030175  0.49173988     0.11300
C148        C  0.47464246  0.51935666  0.48000399     0.22200
C149        C  0.49211473  0.49986391  0.88138160    -0.52600
C150        C  0.46253953  0.52857945  0.91564947     0.11400
C151        C  0.56037657  0.50137864  0.95094692    -0.52100
C152        C  0.53198949  0.53051575  0.48417098     0.12000
H153        H  0.49710198  0.39051254  0.45984361     0.16500
H154        H  0.45098643  0.54269226  0.50754805     0.02200
H155        H  0.48895475  0.50200329  0.83508662     0.16800
H156        H  0.60128743  0.50501149  0.44840832     0.16600
N157        N  0.20634353  0.83550279  0.82726760    -0.25400
N158        N  0.21711737  0.88140477  0.84547952    -0.33300
C159        C  0.18042119  0.91507512  0.82969241     0.02900
C160        C  0.14404805  0.89020246  0.80004229     0.08900
C161        C  0.16159228  0.83966933  0.79905080    -0.04200
H162        H  0.18021051  0.95505863  0.83951277     0.09600
H163        H  0.14303733  0.80830195  0.77940099     0.10800
Cu164      Cu  0.27961369  0.89992139  0.89314575     0.44200
Cu165      Cu  0.25447033  0.76932519  0.84375278     0.42000
Cu166      Cu  0.35036411  0.79561978  0.94870039     0.43900
N167        N  0.34161427  0.90949406  0.94516605    -0.32800
N168        N  0.36702160  0.86949438  0.96743154    -0.27100
C169        C  0.40777877  0.88585590  0.99486383    -0.03200
C170        C  0.40781965  0.93880090  0.98981984     0.09100
C171        C  0.36557640  0.95281072  0.95789255     0.02900
H172        H  0.43708628  0.86103169  0.01323443     0.10500
H173        H  0.35485750  0.99125212  0.94201361     0.09600
N174        N  0.34426769  0.72613056  0.91294315    -0.34300
N175        N  0.31141393  0.71463305  0.87316008    -0.26400
C176        C  0.32312621  0.66677091  0.85717858    -0.01700
C177        C  0.36510176  0.64850168  0.88863009     0.06900
C178        C  0.37688911  0.68728970  0.92319160     0.05000
H179        H  0.30337401  0.64717579  0.82457769     0.10100
H180        H  0.40819065  0.68800246  0.95280875     0.09000
N181        N  0.80430156  0.18674557  0.82421225    -0.25400
N182        N  0.80093425  0.14333737  0.85696393    -0.33300
C183        C  0.83707758  0.11034855  0.84322694     0.02900
C184        C  0.86547071  0.13262959  0.79941768     0.08900
C185        C  0.84368241  0.18127320  0.78786809    -0.04200
H186        H  0.84098209  0.07162428  0.86241934     0.09600
H187        H  0.85481836  0.20978313  0.75459347     0.10800
Cu188      Cu  0.74567672  0.12359465  0.91603275     0.44200
Cu189      Cu  0.75180452  0.24974406  0.83248548     0.42000
Cu190      Cu  0.67674928  0.22223536  0.96209008     0.44300
N191        N  0.68515441  0.10936031  0.96961428    -0.32800
N192        N  0.65984229  0.14797645  0.98902097    -0.27100
C193        C  0.61697786  0.13029692  0.01335967    -0.03200
C194        C  0.61554738  0.07779523  0.00928435     0.09100
C195        C  0.65920118  0.06559101  0.98111270     0.02900
H196        H  0.58658331  0.15445734  0.02658884     0.10500
H197        H  0.66864761  0.02892515  0.96481005     0.09600
N198        N  0.66989096  0.28844425  0.91074954    -0.34300
N199        N  0.69330147  0.29992283  0.86165313    -0.26400
C200        C  0.67177484  0.34390605  0.83791921    -0.01700
C201        C  0.63341816  0.35930491  0.87425684     0.06900
C202        C  0.63401541  0.32317446  0.91944044     0.05000
H203        H  0.68236447  0.36262598  0.79713509     0.10100
H204        H  0.60863232  0.32103214  0.95559136     0.09000
N205        N  0.28545306  0.33168303  0.59764475    -0.25400
N206        N  0.27609555  0.37517011  0.62215465    -0.33300
C207        C  0.31296270  0.40942379  0.60892954     0.02900
C208        C  0.34768068  0.38725460  0.57447312     0.08900
C209        C  0.32914512  0.33789257  0.56803462    -0.04200
H210        H  0.31396166  0.44816945  0.62286605     0.09600
H211        H  0.34585387  0.30895664  0.54299054     0.10800
Cu212      Cu  0.21385608  0.38977974  0.67261943     0.44200
Cu213      Cu  0.23677234  0.26589279  0.60506999     0.42000
Cu214      Cu  0.14321188  0.28114422  0.71420603     0.43900
N215        N  0.15066085  0.39371892  0.72452173    -0.32800
N216        N  0.12574598  0.35173317  0.74173903    -0.27100
C217        C  0.08382741  0.36453603  0.76929604    -0.03200
C218        C  0.08236684  0.41726151  0.76979784     0.09100
C219        C  0.12504645  0.43488074  0.74082839     0.02900
H220        H  0.05448699  0.33776955  0.78320794     0.10500
H221        H  0.13472008  0.47447210  0.72880077     0.09600
N222        N  0.14674945  0.21770247  0.66757402    -0.34300
N223        N  0.17901072  0.21042321  0.62590675    -0.26400
C224        C  0.16583707  0.16603600  0.60232021    -0.01700
C225        C  0.12340726  0.14575619  0.63094349     0.06900
C226        C  0.11284901  0.17958955  0.67165987     0.05000
H227        H  0.18492877  0.15028895  0.56672924     0.10100
H228        H  0.08174005  0.17747757  0.70145758     0.09000
N229        N  0.69382548  0.67858311  0.57445455    -0.25400
N230        N  0.69671210  0.63667719  0.60980574    -0.33300
C231        C  0.65747651  0.60561241  0.60121682     0.02900
C232        C  0.62770590  0.62786782  0.55846549     0.08900
C233        C  0.65186615  0.67409423  0.54180521    -0.04200
H234        H  0.65222697  0.56816198  0.62313476     0.09600
H235        H  0.64048984  0.70161861  0.50759052     0.10800
Cu236      Cu  0.75426249  0.61572272  0.66623298     0.44200
Cu237      Cu  0.74899460  0.73929716  0.57283134     0.42000
Cu238      Cu  0.84989624  0.70264394  0.67167644     0.43900
N239        N  0.81760348  0.59893775  0.71537222    -0.32800
N240        N  0.85339202  0.63365464  0.71804128    -0.27100
C241        C  0.89298577  0.61308246  0.74670955    -0.03200
C242        C  0.88159937  0.56268744  0.76285048     0.09100
C243        C  0.83362956  0.55449916  0.74204544     0.02900
H244        H  0.92896652  0.63191037  0.75062806     0.10500
H245        H  0.81375179  0.51827710  0.74209035     0.09600
N246        N  0.84829520  0.77132141  0.62458821    -0.34300
N247        N  0.81215077  0.78803079  0.58910279    -0.26400
C248        C  0.82346032  0.83754039  0.57145487    -0.01700
C249        C  0.86884248  0.85101128  0.59711950     0.06900
C250        C  0.88287633  0.80802136  0.63011661     0.05000
H251        H  0.79982280  0.86228859  0.54396554     0.10100
H252        H  0.91488203  0.80435040  0.65871167     0.09000
C253        C  0.95552622  0.96652879  0.64869089     0.88400
C254        C  0.92578853  0.00287044  0.68469993    -0.51900
C255        C  0.95473783  0.03230443  0.71773779     0.11300
C256        C  0.01211724  0.02086146  0.71310375     0.22200
C257        C  0.99349221  0.00163850  0.61451218    -0.52600
C258        C  0.02330601  0.02999290  0.64873804     0.11400
C259        C  0.98822786  0.93397566  0.69139237    -0.52100
C260        C  0.01887984  0.96175914  0.72443353     0.12000
H261        H  0.88509020  0.00678833  0.68211231     0.16500
H262        H  0.03615395  0.04407546  0.74046632     0.02200
H263        H  0.99652238  0.00371758  0.56821007     0.16800
H264        H  0.99001198  0.89226729  0.69195335     0.16600
C265        C  0.92208506  0.93388967  0.61513572    -0.11400
C266        C  0.89471698  0.90000887  0.59955800    -0.13000
C267        C  0.03887671  0.44669957  0.78328158    -0.16600
C268        C  0.00012842  0.46969197  0.78915523     0.07400
C269        C  0.95465899  0.49751927  0.78850728     0.09300
C270        C  0.91835443  0.52471314  0.78074766    -0.17500
C271        C  0.06206390  0.06627159  0.62824912    -0.11400
C272        C  0.09319865  0.10041266  0.62255103    -0.13000
C273        C  0.90433157  0.10518986  0.76933459    -0.11400
C274        C  0.93152324  0.07421130  0.74736582    -0.13000
C275        C  0.44936720  0.97101482  0.00331182    -0.16600
C276        C  0.48694133  0.99540571  0.01120237     0.07400
C277        C  0.53246364  0.02257970  0.01587672     0.09300
C278        C  0.57122067  0.04653865  0.01550575    -0.17500
C279        C  0.06160428  0.93678904  0.75491575    -0.11400
C280        C  0.09820934  0.91399498  0.77564766    -0.13000
C281        C  0.42718476  0.43551885  0.52513536    -0.11400
C282        C  0.39182602  0.41263300  0.54827924    -0.13000
C283        C  0.55593250  0.57213514  0.51304638    -0.11400
C284        C  0.58547154  0.60204293  0.53282007    -0.13000
C285        C  0.59749684  0.40186783  0.87008868    -0.11400
C286        C  0.56522416  0.43254209  0.88267007    -0.13000
C287        C  0.39430648  0.60115685  0.88681696    -0.11400
C288        C  0.42436270  0.56599803  0.89500592    -0.13000
loop_ 
_geom_bond_atom_site_label_1 
_geom_bond_atom_site_label_2 
_geom_bond_distance 
_geom_bond_site_symmetry_2 
_ccdc_geom_bond_type 
C1            C7   1.527       .  S
C1            C5   1.554       .  S
C1          C146   1.537       .  S
C1          C142   1.495       .  S
C2          C145   1.536       .  S
C2            H9   1.087       .  S
C2            C3   1.365       .  D
C3            C4   1.555       .  S
C3          C137   1.466   1_556  S
C4            C8   1.555       .  S
C4          C150   1.542       .  S
C4           H10   1.111   1_556  S
C5           H11   1.085       .  S
C5            C6   1.380       .  D
C6          C148   1.542       .  S
C6          C144   1.466       .  S
C7          H156   1.088       .  S
C7          C152   1.359       .  D
C8          C151   1.359       .  D
C8          C139   1.461   1_556  S
H12         C151   1.088       .  S
N13          N14   1.328       .  A
N13          C17   1.360       .  A
N13         Cu21   2.160       .  S
N14          C15   1.346       .  A
N14         Cu20   2.073       .  S
C15          C16   1.376       .  A
C15          H18   1.082       .  S
C16          C17   1.398       .  A
C16         C136   1.464       .  S
C17          H19   1.083       .  S
Cu20         N23   2.072       .  S
Cu21         N31   2.158       .  S
Cu22         N24   2.051       .  S
Cu22         N30   2.052       .  S
N23          N24   1.319       .  A
N23          C27   1.346       .  A
N24          C25   1.342       .  A
C25          C26   1.377       .  A
C25          H28   1.082       .  S
C26          C27   1.383       .  A
C26         C131   1.434       .  S
C27          H29   1.083       .  S
N30          N31   1.325       .  A
N30          C34   1.342       .  A
N31          C32   1.362       .  A
C32          C33   1.401       .  A
C32          H35   1.082       .  S
C33          C34   1.373       .  A
C33         C143   1.460       .  S
C34          H36   1.083       .  S
N37          N38   1.327       .  A
N37          C41   1.363       .  A
N37         Cu45   2.173       .  S
N38          C39   1.342       .  A
N38         Cu44   2.060       .  S
C39          C40   1.372       .  A
C39          H42   1.082       .  S
C40          C41   1.403       .  A
C40         C129   1.464       .  S
C41          H43   1.082       .  S
Cu44         N47   2.060       .  S
Cu45         N55   2.172       .  S
Cu46         N48   2.045       .  S
Cu46         N54   2.044       .  S
N47          N48   1.317       .  A
N47          C51   1.345       .  A
N48          C49   1.342       .  A
C49          C50   1.378       .  A
C49          H52   1.082       .  S
C50          C51   1.383       .  A
C50         C134   1.434       .  S
C51          H53   1.082       .  S
N54          N55   1.325       .  A
N54          C58   1.339       .  A
N55          C56   1.365       .  A
C56          C57   1.405       .  A
C56          H59   1.081       .  S
C57          C58   1.369       .  A
C57         C141   1.461       .  S
C58          H60   1.082       .  S
N61          N62   1.328       .  A
N61          C65   1.357       .  A
N61         Cu69   2.146       .  S
N62          C63   1.348       .  A
N62         Cu68   2.084       .  S
C63          C64   1.379       .  A
C63          H66   1.082       .  S
C64          C65   1.395       .  A
C64         C138   1.462       .  S
C65          H67   1.082       .  S
Cu68         N71   2.081       .  S
Cu69         N79   2.143       .  S
Cu70         N72   2.043       .  S
Cu70         N78   2.043       .  S
N71          N72   1.319       .  A
N71          C75   1.347       .  A
N72          C73   1.341       .  A
C73          C74   1.375       .  A
C73          H76   1.082       .  S
C74          C75   1.385       .  A
C74         C123   1.434       .  S
C75          H77   1.082       .  S
N78          N79   1.323       .  A
N78          C82   1.339       .  A
N79          C80   1.360       .  A
C80          C81   1.398       .  A
C80          H83   1.081       .  S
C81          C82   1.371       .  A
C81         C128   1.452       .  S
C82          H84   1.082       .  S
N85          N86   1.328       .  A
N85          C89   1.360       .  A
N85         Cu93   2.156       .  S
N86          C87   1.343       .  A
N86         Cu92   2.069       .  S
C87          C88   1.373       .  A
C87          H90   1.081       .  S
C88          C89   1.398       .  A
C88         C140   1.458       .  S
C89          H91   1.082       .  S
Cu92         N95   2.068       .  S
Cu93        N103   2.153       .  S
Cu94         N96   2.039       .  S
Cu94        N102   2.039       .  S
N95          N96   1.317       .  A
N95          C99   1.347       .  A
N96          C97   1.339       .  A
C97          C98   1.376       .  A
C97         H100   1.081       .  S
C98          C99   1.385       .  A
C98         C126   1.432       .  S
C99         H101   1.082       .  S
N102        N103   1.323       .  A
N102        C106   1.338       .  A
N103        C104   1.362       .  A
C104        C105   1.401       .  A
C104        H107   1.081       .  S
C105        C106   1.369       .  A
C105        C122   1.455       .  S
C106        H108   1.082       .  S
C109        C110   1.530   1_565  S
C109        C115   1.536       .  S
C109        C113   1.549   1_565  S
C109        C121   1.489       .  S
C110        H117   1.087       .  S
C110        C111   1.362       .  D
C111        C112   1.558   1_655  S
C111        C130   1.469       .  S
C112        C116   1.556   1_545  S
C112        C114   1.540       .  S
C112        H118   1.111       .  S
C113        H119   1.086       .  S
C113        C114   1.376   1_655  D
C114        C127   1.458       .  S
C115        H120   1.087       .  S
C115        C116   1.363   1_655  D
C116        C135   1.468       .  S
C121        C122   1.218       .  T
C123        C124   1.204       .  T
C124        C125   1.408   1_455  S
C125        C126   1.203       .  T
C127        C128   1.216       .  T
C129        C130   1.223       .  T
C131        C132   1.204       .  T
C132        C133   1.409   1_565  S
C133        C134   1.204       .  T
C135        C136   1.222       .  T
C137        C138   1.221       .  T
C139        C140   1.219       .  T
C141        C142   1.222       .  T
C143        C144   1.220       .  T
C145        C151   1.527       .  S
C145        C149   1.554       .  S
C145        C286   1.495       .  S
C146        H153   1.087       .  S
C146        C147   1.365       .  D
C147        C148   1.555       .  S
C147        C281   1.466       .  S
C148        C152   1.555       .  S
C148        H154   1.111       .  S
C149        H155   1.085       .  S
C149        C150   1.380       .  D
C150        C288   1.466       .  S
C152        C283   1.461       .  S
N157        N158   1.328       .  A
N157        C161   1.360       .  A
N157       Cu165   2.160       .  S
N158        C159   1.346       .  A
N158       Cu164   2.074       .  S
C159        C160   1.376       .  A
C159        H162   1.082       .  S
C160        C161   1.399       .  A
C160        C280   1.464       .  S
C161        H163   1.083       .  S
Cu164       N167   2.072       .  S
Cu165       N175   2.159       .  S
Cu166       N168   2.051       .  S
Cu166       N174   2.052       .  S
N167        N168   1.319       .  A
N167        C171   1.346       .  A
N168        C169   1.342       .  A
C169        C170   1.377       .  A
C169        H172   1.082   1_556  S
C170        C171   1.383       .  A
C170        C275   1.434   1_556  S
C171        H173   1.083       .  S
N174        N175   1.325       .  A
N174        C178   1.342       .  A
N175        C176   1.362       .  A
C176        C177   1.401       .  A
C176        H179   1.082       .  S
C177        C178   1.372       .  A
C177        C287   1.460       .  S
C178        H180   1.083       .  S
N181        N182   1.327       .  A
N181        C185   1.363       .  A
N181       Cu189   2.173       .  S
N182        C183   1.343       .  A
N182       Cu188   2.061       .  S
C183        C184   1.372       .  A
C183        H186   1.082       .  S
C184        C185   1.403       .  A
C184        C273   1.464       .  S
C185        H187   1.082       .  S
Cu188       N191   2.060       .  S
Cu189       N199   2.171       .  S
Cu190       N192   2.045       .  S
Cu190       N198   2.044       .  S
N191        N192   1.317       .  A
N191        C195   1.345       .  A
N192        C193   1.342   1_556  A
C193        C194   1.378       .  A
C193        H196   1.082       .  S
C194        C195   1.383   1_554  A
C194        C278   1.434       .  S
C195        H197   1.082       .  S
N198        N199   1.325       .  A
N198        C202   1.339       .  A
N199        C200   1.365       .  A
C200        C201   1.404       .  A
C200        H203   1.081       .  S
C201        C202   1.369       .  A
C201        C285   1.461       .  S
C202        H204   1.082       .  S
N205        N206   1.328       .  A
N205        C209   1.357       .  A
N205       Cu213   2.146       .  S
N206        C207   1.348       .  A
N206       Cu212   2.084       .  S
C207        C208   1.379       .  A
C207        H210   1.082       .  S
C208        C209   1.395       .  A
C208        C282   1.462       .  S
C209        H211   1.082       .  S
Cu212       N215   2.081       .  S
Cu213       N223   2.143       .  S
Cu214       N216   2.043       .  S
Cu214       N222   2.044       .  S
N215        N216   1.319       .  A
N215        C219   1.347       .  A
N216        C217   1.341       .  A
C217        C218   1.375       .  A
C217        H220   1.082       .  S
C218        C219   1.385       .  A
C218        C267   1.434       .  S
C219        H221   1.082       .  S
N222        N223   1.323       .  A
N222        C226   1.340       .  A
N223        C224   1.360       .  A
C224        C225   1.398       .  A
C224        H227   1.081       .  S
C225        C226   1.371       .  A
C225        C272   1.452       .  S
C226        H228   1.082       .  S
N229        N230   1.328       .  A
N229        C233   1.360       .  A
N229       Cu237   2.155       .  S
N230        C231   1.343       .  A
N230       Cu236   2.069       .  S
C231        C232   1.373       .  A
C231        H234   1.081       .  S
C232        C233   1.398       .  A
C232        C284   1.457       .  S
C233        H235   1.082       .  S
Cu236       N239   2.067       .  S
Cu237       N247   2.153       .  S
Cu238       N240   2.040       .  S
Cu238       N246   2.039       .  S
N239        N240   1.317       .  A
N239        C243   1.347       .  A
N240        C241   1.339       .  A
C241        C242   1.376       .  A
C241        H244   1.081       .  S
C242        C243   1.385       .  A
C242        C270   1.432       .  S
C243        H245   1.082       .  S
N246        N247   1.323       .  A
N246        C250   1.338       .  A
N247        C248   1.362       .  A
C248        C249   1.401       .  A
C248        H251   1.081       .  S
C249        C250   1.369       .  A
C249        C266   1.455       .  S
C250        H252   1.082       .  S
C253        C254   1.530   1_565  S
C253        C259   1.536       .  S
C253        C257   1.549   1_565  S
C253        C265   1.489       .  S
C254        H261   1.087       .  S
C254        C255   1.362       .  D
C255        C256   1.558   1_655  S
C255        C274   1.469       .  S
C256        C260   1.556   1_545  S
C256        C258   1.540       .  S
C256        H262   1.111       .  S
C257        H263   1.086       .  S
C257        C258   1.376   1_655  D
C258        C271   1.458       .  S
C259        H264   1.087       .  S
C259        C260   1.363   1_655  D
C260        C279   1.468       .  S
C265        C266   1.218       .  T
C267        C268   1.204       .  T
C268        C269   1.408   1_455  S
C269        C270   1.203       .  T
C271        C272   1.216       .  T
C273        C274   1.223       .  T
C275        C276   1.204       .  T
C276        C277   1.409   1_565  S
C277        C278   1.204       .  T
C279        C280   1.222       .  T
C281        C282   1.221       .  T
C283        C284   1.218       .  T
C285        C286   1.222       .  T
C287        C288   1.221       .  T
