geometry optimzed in LAMMPS
_audit_creation_date              2020-12-01 
_audit_creation_method            'lammps2cif' 
_symmetry_space_group_name_H-M    'P1' 
_symmetry_Int_Tables_number       1 
_symmetry_cell_setting            triclinic 
loop_ 
_symmetry_equiv_pos_as_xyz 
  x,y,z 
_cell_length_a                    29.65457289 
_cell_length_b                    29.65307029604776 
_cell_length_c                    26.91329919614849 
_cell_angle_alpha                 90.06960832170125 
_cell_angle_beta                  89.95661940008691 
_cell_angle_gamma                 89.99884282237717 
loop_ 
_atom_site_label 
_atom_site_type_symbol 
_atom_site_fract_x 
_atom_site_fract_y 
_atom_site_fract_z 
_atom_site_charge 
N1          N  0.63732855  0.26375960  0.99971489    -0.26000
N2          N  0.59442581  0.27608508  0.99967651    -0.33800
C3          C  0.56827441  0.23906872  0.99954765     0.02400
C4          C  0.59596796  0.20176985  0.99950380     0.08400
C5          C  0.63952265  0.21835352  0.99961341    -0.04700
H6          H  0.53178773  0.23937939  0.99953918     0.09100
H7          H  0.67045275  0.19898846  0.99966809     0.10300
Cu8        Cu  0.57242171  0.34231939  0.99988075     0.44200
Cu9        Cu  0.69066052  0.30955639  0.00000406     0.42000
Cu10       Cu  0.65800376  0.42787652  0.50010795     0.43900
N11         N  0.55819530  0.41063294  0.99995673    -0.33400
N12         N  0.58970215  0.44213695  0.50001129    -0.27600
C13         C  0.56988185  0.48291749  0.50002943    -0.03700
C14         C  0.52367072  0.47667098  0.49998706     0.08500
C15         C  0.51742123  0.43045892  0.99994136     0.02300
H16         H  0.58783720  0.51466998  0.50007904     0.09900
H17         H  0.48566907  0.41250492  0.99989940     0.09000
N18         N  0.72420305  0.40578259  0.00034250    -0.34800
N19         N  0.73648598  0.36286458  0.50030931    -0.27000
C20         C  0.78188683  0.36062642  0.50043207    -0.02200
C21         C  0.79850974  0.40416669  0.00055047     0.06400
C22         C  0.76124235  0.43189845  0.00048906     0.04500
H23         H  0.80122133  0.32967624  0.00038582     0.09600
H24         H  0.76096834  0.46838742  0.50049699     0.08400
N25         N  0.77563046  0.86266287  0.25117056    -0.26000
N26         N  0.78799787  0.90555686  0.25131674    -0.33800
C27         C  0.75102331  0.93175708  0.25186720     0.02400
C28         C  0.71369602  0.90411790  0.25207395     0.08400
C29         C  0.73022117  0.86053328  0.25161604    -0.04700
H30         H  0.75138262  0.96824545  0.25190234     0.09100
H31         H  0.71081296  0.82963076  0.25141223     0.10300
Cu32       Cu  0.85420002  0.92756439  0.25044626     0.44200
Cu33       Cu  0.82138701  0.80926157  0.24998950     0.42000
Cu34       Cu  0.93967662  0.84203402  0.24958777     0.43900
N35         N  0.92247976  0.94182570  0.25011430    -0.33400
N36         N  0.95397501  0.91031365  0.24992089    -0.27600
C37         C  0.99475505  0.93012298  0.24986296    -0.03700
C38         C  0.98851261  0.97633558  0.25001833     0.08500
C39         C  0.94230552  0.98259835  0.25017281     0.02300
H40         H  0.02650231  0.91215941  0.24969826     0.09900
H41         H  0.92435624  0.01435476  0.25033790     0.09000
N42         N  0.91765753  0.77582799  0.24870118    -0.34800
N43         N  0.87476171  0.76347499  0.24882446    -0.27000
C44         C  0.87261519  0.71806371  0.24837350    -0.02200
C45         C  0.91619131  0.70152008  0.24793621     0.06400
C46         C  0.94384290  0.73884083  0.24816040     0.04500
H47         H  0.84170683  0.69866626  0.24856054     0.09600
H48         H  0.98032955  0.73918688  0.24814357     0.08400
N49         N  0.27569081  0.62534741  0.49970647    -0.26000
N50         N  0.28805860  0.58245347  0.49967201    -0.33800
C51         C  0.25107718  0.55625812  0.49953988     0.02400
C52         C  0.21375071  0.58390556  0.99948929     0.08400
C53         C  0.23028200  0.62748571  0.49959884    -0.04700
H54         H  0.25143163  0.51976984  0.49953090     0.09100
H55         H  0.21087973  0.65839332  0.49964572     0.10300
Cu56       Cu  0.35428530  0.56046840  0.49988088     0.44200
Cu57       Cu  0.32144393  0.67874034  0.49998647     0.42000
Cu58       Cu  0.43976284  0.64602151  0.00010798     0.43900
N59         N  0.42258115  0.54622007  0.49997310    -0.33400
N60         N  0.45407363  0.57773509  0.00003032    -0.27600
C61         C  0.49485738  0.55792656  0.00004543    -0.03700
C62         C  0.48862295  0.51171105  0.49999660     0.08500
C63         C  0.44241437  0.50544850  0.49995277     0.02300
H64         H  0.52660291  0.57589230  0.00008953     0.09900
H65         H  0.42446869  0.47369074  0.49990148     0.09000
N66         N  0.41769538  0.71222425  0.50029387    -0.34800
N67         N  0.37479010  0.72454702  0.00025439    -0.27000
C68         C  0.37260363  0.76995603  0.00034589    -0.02200
C69         C  0.41616379  0.78653354  0.00045003     0.06400
C70         C  0.44384927  0.74923531  0.50041331     0.02900
H71         H  0.34167712  0.78932686  0.50029224     0.09600
H72         H  0.48033603  0.74891982  0.00042377     0.08400
O73         O  0.58330370  0.99780917  0.25076681    -0.71600
O74         O  0.46164506  0.05776925  0.24936786    -0.72600
O75         O  0.52192244  0.02797248  0.32464219    -0.61200
O76         O  0.52314463  0.02761617  0.17548484    -0.69600
O77         O  0.49029777  0.96021909  0.17531773    -0.69200
O78         O  0.48907685  0.96057468  0.32449549    -0.60500
O79         O  0.42891222  0.99034271  0.24920613    -0.73000
O80         O  0.55054039  0.93039717  0.25060321    -0.71700
Cu81       Cu  0.52367932  0.03015833  0.25007294     1.04600
Cu82       Cu  0.48853167  0.95801868  0.24989754     1.04300
C83         C  0.58598060  0.95483036  0.25096285     0.94600
C84         C  0.42621370  0.03331686  0.24901246     0.93700
C85         C  0.50541734  0.99429083  0.34789189     0.85800
C86         C  0.50681049  0.99390568  0.15207810     0.92100
O87         O  0.50247231  0.07132433  0.00011468    -0.71600
O88         O  0.44239520  0.94974539  0.00039293    -0.72600
O89         O  0.47292233  0.01051967  0.07481770    -0.61200
O90         O  0.47197580  0.01064570  0.42565075    -0.69600
O91         O  0.53932924  0.97771371  0.42515060    -0.69200
O92         O  0.54027590  0.97758803  0.07432006    -0.60500
O93         O  0.50977334  0.91691651  0.49985392    -0.73000
O94         O  0.56985783  0.03851185  0.49957496    -0.71700
Cu95       Cu  0.47007897  0.01173709  0.00027029     1.04600
Cu96       Cu  0.54217538  0.97650535  0.49969895     1.04300
C97         C  0.54544708  0.07397469  0.99978379     0.94600
C98         C  0.46679630  0.91427850  0.50018250     0.93700
C99         C  0.50669562  0.99401809  0.09789179     0.85800
C100        C  0.50554756  0.99420018  0.40207790     0.92100
N101        N  0.13723445  0.22422836  0.25113271    -0.26000
N102        N  0.09433006  0.21190913  0.25125739    -0.33800
C103        C  0.06817875  0.24892248  0.25180009     0.02400
C104        C  0.09587089  0.28621731  0.25202526     0.08400
C105        C  0.13942679  0.26963379  0.25158557    -0.04700
H106        H  0.03169192  0.24861276  0.25182612     0.09100
H107        H  0.17035478  0.28900001  0.25140568     0.10300
Cu108      Cu  0.07230183  0.14570103  0.25039425     0.44200
Cu109      Cu  0.19057199  0.17842689  0.24998339     0.42000
Cu110      Cu  0.15788161  0.06014233  0.24963281     0.43900
N111        N  0.05807650  0.07740166  0.25009941    -0.33400
N112        N  0.08958304  0.04589695  0.24993896    -0.27600
C113        C  0.06976354  0.00511914  0.24989054    -0.03700
C114        C  0.02355461  0.01137111  0.25001984     0.08500
C115        C  0.01730251  0.05758092  0.25014886     0.02300
H116        H  0.08771826  0.97336580  0.24975059     0.09900
H117        H  0.98555066  0.07553675  0.25028673     0.09000
N118        N  0.22408606  0.08219130  0.24874124    -0.34800
N119        N  0.23638974  0.12510245  0.24884235    -0.27000
C120        C  0.28179199  0.12731202  0.24837634    -0.02200
C121        C  0.29839252  0.08376045  0.24795271     0.06400
C122        C  0.26110863  0.05605271  0.24820088     0.04500
H123        H  0.30114523  0.15824934  0.24853791     0.09600
H124        H  0.26081312  0.01956382  0.24819295     0.08400
O125        O  0.94243579  0.53833304  0.24927922    -0.71600
O126        O  0.00240018  0.41670299  0.25065005    -0.72600
O127        O  0.97207185  0.47798627  0.32456160    -0.61200
O128        O  0.97281719  0.47695486  0.17538357    -0.69600
O129        O  0.04020403  0.50981751  0.17547788    -0.69200
O130        O  0.03945811  0.51084997  0.32463584    -0.60500
O131        O  0.06981469  0.44945600  0.25074801    -0.73000
O132        O  0.00984012  0.57110585  0.24937570    -0.71700
Cu133      Cu  0.97006574  0.47631915  0.24996423     1.04600
Cu134      Cu  0.04219441  0.51148350  0.25006455     1.04300
C135        C  0.96686426  0.57377933  0.24905201     0.94600
C136        C  0.04537252  0.41401688  0.25096982     0.93700
C137        C  0.00571147  0.49448011  0.34792200     0.85800
C138        C  0.00657435  0.49332062  0.15210769     0.92100
O139        O  0.92897852  0.49758699  0.50048753    -0.71600
O140        O  0.05056480  0.55763126  0.50009868    -0.72600
O141        O  0.98937941  0.52793073  0.42569055    -0.61200
O142        O  0.99004458  0.52724813  0.07485543    -0.69600
O143        O  0.02295189  0.45987994  0.07434267    -0.69200
O144        O  0.02228617  0.46056239  0.42517201    -0.60500
O145        O  0.08337215  0.49024042  0.99954412    -0.73000
O146        O  0.96176832  0.43018688  0.99993344    -0.71700
Cu147      Cu  0.98856678  0.52996319  0.50030967     1.04600
Cu148      Cu  0.02377370  0.45785163  0.99972111     1.04300
C149        C  0.92631696  0.45461058  0.50028414     0.94600
C150        C  0.08602314  0.53321982  0.99974967     0.93700
C151        C  0.00576025  0.49432669  0.40210840     0.85800
C152        C  0.00655325  0.49347771  0.09792175     0.92100
C153        C  0.08149549  0.33255683  0.25192576    -0.12000
C154        C  0.06631905  0.37032053  0.25157105    -0.13500
C155        C  0.38251066  0.05425059  0.24840639    -0.12000
C156        C  0.34473854  0.06940555  0.24805026    -0.13500
C157        C  0.43056038  0.83286550  0.50041344    -0.12000
C158        C  0.44579150  0.87060785  0.50032318    -0.13500
C159        C  0.16743353  0.56946330  0.99951289    -0.12000
C160        C  0.12969752  0.55421760  0.99959890    -0.13500
C161        C  0.66738539  0.91858129  0.25195401    -0.12000
C162        C  0.62965981  0.93384951  0.25158103    -0.13500
C163        C  0.93063459  0.65519882  0.24805904    -0.12000
C164        C  0.94588541  0.61746336  0.24843439    -0.13500
C165        C  0.88263147  0.43364429  0.50044005    -0.12000
C166        C  0.84486046  0.41849084  0.00052912    -0.13500
C167        C  0.58160063  0.15542659  0.99954197    -0.12000
C168        C  0.56642656  0.11765993  0.99963719    -0.13500
N169        N  0.63732859  0.26375954  0.49971473    -0.26000
N170        N  0.59442586  0.27608502  0.49967643    -0.33800
C171        C  0.56827448  0.23906866  0.49954781     0.02400
C172        C  0.59596800  0.20176981  0.49950398     0.08400
C173        C  0.63952272  0.21835344  0.49961332    -0.04700
H174        H  0.53178773  0.23937935  0.49953947     0.09100
H175        H  0.67045275  0.19898841  0.49966793     0.10300
Cu176      Cu  0.57242170  0.34231935  0.49988061     0.44200
Cu177      Cu  0.69066057  0.30955635  0.50000418     0.42000
Cu178      Cu  0.65800369  0.42787628  0.00010814     0.43900
N179        N  0.55819537  0.41063293  0.49995684    -0.33400
N180        N  0.58970212  0.44213695  0.00001112    -0.27600
C181        C  0.56988184  0.48291750  0.00002932    -0.03700
C182        C  0.52367069  0.47667101  0.99998715     0.08500
C183        C  0.51742124  0.43045885  0.49994127     0.02300
H184        H  0.58783720  0.51466997  0.00007891     0.09900
H185        H  0.48566921  0.41250490  0.49989915     0.09000
N186        N  0.72420307  0.40578263  0.50034244    -0.34800
N187        N  0.73648600  0.36286453  0.00030934    -0.27000
C188        C  0.78188685  0.36062641  0.00043213    -0.02200
C189        C  0.79850976  0.40416669  0.50055057     0.06400
C190        C  0.76124239  0.43189848  0.50048915     0.04500
H191        H  0.80122125  0.32967622  0.50038562     0.09600
H192        H  0.76096828  0.46838743  0.00049681     0.08400
N193        N  0.77563045  0.86266292  0.75117074    -0.26000
N194        N  0.78799785  0.90555689  0.75131678    -0.33800
C195        C  0.75102326  0.93175711  0.75186705     0.02400
C196        C  0.71369600  0.90411790  0.75207385     0.08400
C197        C  0.73022116  0.86053328  0.75161615    -0.04700
H198        H  0.75138250  0.96824544  0.75190205     0.09100
H199        H  0.71081303  0.82963078  0.75141247     0.10300
Cu200      Cu  0.85420005  0.92756438  0.75044606     0.44200
Cu201      Cu  0.82138683  0.80926150  0.74998967     0.42000
Cu202      Cu  0.93967666  0.84203403  0.74958756     0.43900
N203        N  0.92247978  0.94182579  0.75011406    -0.33400
N204        N  0.95397502  0.91031373  0.74992074    -0.27600
C205        C  0.99475508  0.93012303  0.74986294    -0.03700
C206        C  0.98851265  0.97633564  0.75001823     0.08500
C207        C  0.94230559  0.98259843  0.75017259     0.02300
H208        H  0.02650230  0.91215945  0.74969840     0.09900
H209        H  0.92435634  0.01435490  0.75033767     0.09000
N210        N  0.91765744  0.77582801  0.74870112    -0.34800
N211        N  0.87476162  0.76347500  0.74882454    -0.27000
C212        C  0.87261516  0.71806375  0.74837359    -0.02200
C213        C  0.91619123  0.70152008  0.74793612     0.06400
C214        C  0.94384286  0.73884085  0.74816038     0.04500
H215        H  0.84170668  0.69866621  0.74856073     0.09600
H216        H  0.98032938  0.73918690  0.74814364     0.08400
N217        N  0.27569081  0.62534751  0.99970661    -0.26000
N218        N  0.28805860  0.58245352  0.99967212    -0.33800
C219        C  0.25107721  0.55625824  0.99954000     0.02400
C220        C  0.21375070  0.58390551  0.49948911     0.08400
C221        C  0.23028203  0.62748575  0.99959901    -0.04700
H222        H  0.25143169  0.51976982  0.99953090     0.09100
H223        H  0.21087967  0.65839346  0.99964584     0.10300
Cu224      Cu  0.35428519  0.56046835  0.99988070     0.44200
Cu225      Cu  0.32144399  0.67874033  0.99998628     0.42000
Cu226      Cu  0.43976288  0.64602151  0.50010781     0.43900
N227        N  0.42258109  0.54622007  0.99997316    -0.33400
N228        N  0.45407369  0.57773508  0.50003039    -0.27600
C229        C  0.49485742  0.55792652  0.50004554    -0.03700
C230        C  0.48862293  0.51171110  0.99999670     0.08500
C231        C  0.44241437  0.50544852  0.99995295     0.02300
H232        H  0.52660295  0.57589224  0.50008972     0.09900
H233        H  0.42446874  0.47369070  0.99990171     0.09000
N234        N  0.41769538  0.71222421  0.00029383    -0.34800
N235        N  0.37479009  0.72454704  0.50025456    -0.27000
C236        C  0.37260360  0.76995607  0.50034606    -0.02200
C237        C  0.41616378  0.78653357  0.50045012     0.06400
C238        C  0.44384931  0.74923526  0.00041335     0.02900
H239        H  0.34167713  0.78932684  0.00029201     0.09600
H240        H  0.48033607  0.74891989  0.50042358     0.08400
O241        O  0.58330369  0.99780911  0.75076677    -0.71600
O242        O  0.46164511  0.05776928  0.74936778    -0.72600
O243        O  0.52192249  0.02797255  0.82464219    -0.61200
O244        O  0.52314451  0.02761616  0.67548488    -0.69600
O245        O  0.49029778  0.96021900  0.67531770    -0.69200
O246        O  0.48907692  0.96057475  0.82449543    -0.60500
O247        O  0.42891228  0.99034273  0.74920615    -0.73000
O248        O  0.55054039  0.93039711  0.75060308    -0.71700
Cu249      Cu  0.52367932  0.03015832  0.75007292     1.04600
Cu250      Cu  0.48853171  0.95801866  0.74989749     1.04300
C251        C  0.58598060  0.95483030  0.75096274     0.94600
C252        C  0.42621375  0.03331689  0.74901243     0.93700
C253        C  0.50541732  0.99429091  0.84789188     0.85800
C254        C  0.50681044  0.99390565  0.65207811     0.92100
O255        O  0.50247229  0.07132434  0.50011468    -0.71600
O256        O  0.44239521  0.94974537  0.50039275    -0.72600
O257        O  0.47292237  0.01051960  0.57481760    -0.61200
O258        O  0.47197577  0.01064575  0.92565082    -0.69600
O259        O  0.53932919  0.97771372  0.92515059    -0.69200
O260        O  0.54027596  0.97758803  0.57432007    -0.60500
O261        O  0.50977330  0.91691649  0.99985377    -0.73000
O262        O  0.56985783  0.03851181  0.99957512    -0.71700
Cu263      Cu  0.47007900  0.01173705  0.50027019     1.04600
Cu264      Cu  0.54217536  0.97650532  0.99969895     1.04300
C265        C  0.54544707  0.07397471  0.49978370     0.94600
C266        C  0.46679627  0.91427850  0.00018245     0.93700
C267        C  0.50669564  0.99401806  0.59789177     0.85800
C268        C  0.50554751  0.99420022  0.90207792     0.92100
N269        N  0.13723448  0.22422837  0.75113266    -0.26000
N270        N  0.09433008  0.21190915  0.75125734    -0.33800
C271        C  0.06817880  0.24892253  0.75180017     0.02400
C272        C  0.09587097  0.28621734  0.75202531     0.08400
C273        C  0.13942685  0.26963381  0.75158554    -0.04700
H274        H  0.03169197  0.24861286  0.75182624     0.09100
H275        H  0.17035485  0.28900002  0.75140551     0.10300
Cu276      Cu  0.07230189  0.14570103  0.75039405     0.44200
Cu277      Cu  0.19057199  0.17842685  0.74998319     0.42000
Cu278      Cu  0.15788163  0.06014225  0.74963297     0.43900
N279        N  0.05807657  0.07740166  0.75009947    -0.33400
N280        N  0.08958308  0.04589694  0.74993914    -0.27600
C281        C  0.06976357  0.00511914  0.74989068    -0.03700
C282        C  0.02355467  0.01137112  0.75001988     0.08500
C283        C  0.01730255  0.05758095  0.75014879     0.02300
H284        H  0.08771829  0.97336577  0.74975066     0.09900
H285        H  0.98555080  0.07553677  0.75028638     0.09000
N286        N  0.22408604  0.08219120  0.74874124    -0.34800
N287        N  0.23638967  0.12510236  0.74884223    -0.27000
C288        C  0.28179192  0.12731200  0.74837610    -0.02200
C289        C  0.29839249  0.08376043  0.74795246     0.06400
C290        C  0.26110864  0.05605266  0.74820076     0.04500
H291        H  0.30114505  0.15824933  0.74853763     0.09600
H292        H  0.26081318  0.01956376  0.74819280     0.08400
O293        O  0.94243588  0.53833303  0.74927920    -0.71600
O294        O  0.00240022  0.41670296  0.75065020    -0.72600
O295        O  0.97207178  0.47798620  0.82456168    -0.61200
O296        O  0.97281726  0.47695479  0.67538364    -0.69600
O297        O  0.04020409  0.50981746  0.67547791    -0.69200
O298        O  0.03945800  0.51085001  0.82463588    -0.60500
O299        O  0.06981471  0.44945600  0.75074816    -0.73000
O300        O  0.00984017  0.57110590  0.74937565    -0.71700
Cu301      Cu  0.97006578  0.47631910  0.74996430     1.04600
Cu302      Cu  0.04219442  0.51148350  0.75006460     1.04300
C303        C  0.96686432  0.57377935  0.74905200     0.94600
C304        C  0.04537255  0.41401687  0.75096990     0.93700
C305        C  0.00571137  0.49448013  0.84792206     0.85800
C306        C  0.00657439  0.49332058  0.65210773     0.92100
O307        O  0.92897846  0.49758697  0.00048745    -0.71600
O308        O  0.05056482  0.55763125  0.00009882    -0.72600
O309        O  0.98937938  0.52793079  0.92569063    -0.61200
O310        O  0.99004466  0.52724815  0.57485541    -0.69600
O311        O  0.02295182  0.45987988  0.57434265    -0.69200
O312        O  0.02228612  0.46056243  0.92517206    -0.60500
O313        O  0.08337218  0.49024043  0.49954409    -0.73000
O314        O  0.96176833  0.43018688  0.49993334    -0.71700
Cu315      Cu  0.98856674  0.52996321  0.00030973     1.04600
Cu316      Cu  0.02377372  0.45785159  0.49972105     1.04300
C317        C  0.92631694  0.45461055  0.00028408     0.94600
C318        C  0.08602313  0.53321984  0.49974960     0.93700
C319        C  0.00576021  0.49432674  0.90210847     0.85800
C320        C  0.00655325  0.49347768  0.59792175     0.92100
C321        C  0.08149558  0.33255685  0.75192561    -0.12000
C322        C  0.06631910  0.37032054  0.75157092    -0.13500
C323        C  0.38251068  0.05425062  0.74840638    -0.12000
C324        C  0.34473855  0.06940557  0.74805012    -0.13500
C325        C  0.43056037  0.83286547  0.00041329    -0.12000
C326        C  0.44579145  0.87060785  0.00032302    -0.13500
C327        C  0.16743349  0.56946331  0.49951274    -0.12000
C328        C  0.12969748  0.55421764  0.49959883    -0.13500
C329        C  0.66738537  0.91858125  0.75195399    -0.12000
C330        C  0.62965979  0.93384947  0.75158098    -0.13500
C331        C  0.93063456  0.65519882  0.74805895    -0.12000
C332        C  0.94588541  0.61746336  0.74843443    -0.13500
C333        C  0.88263148  0.43364422  0.00043988    -0.12000
C334        C  0.84486047  0.41849086  0.50052927    -0.13500
C335        C  0.58160070  0.15542656  0.49954210    -0.12000
C336        C  0.56642655  0.11765994  0.49963713    -0.13500
loop_ 
_geom_bond_atom_site_label_1 
_geom_bond_atom_site_label_2 
_geom_bond_distance 
_geom_bond_site_symmetry_2 
_ccdc_geom_bond_type 
N1            N2   1.324       .  A
N1            C5   1.348       .  A
N1           Cu9   2.085   1_556  S
N2            C3   1.344       .  A
N2           Cu8   2.070       .  S
C3            C4   1.378       .  A
C3            H6   1.082       .  S
C4            C5   1.382       .  A
C4          C167   1.439       .  S
C5            H7   1.082       .  S
Cu8          N11   2.069       .  S
Cu9         N187   2.085       .  S
Cu10         N12   2.069       .  S
Cu10        N186   2.070       .  S
N11         N180   1.321   1_556  A
N11          C15   1.344       .  A
N12         N179   1.321       .  A
N12          C13   1.345       .  A
C13          C14   1.383       .  A
C13          H16   1.082       .  S
C14         C183   1.383       .  A
C14          C62   1.470       .  S
C15         C182   1.383       .  A
C15          H17   1.082       .  S
N18         N187   1.324       .  A
N18          C22   1.344       .  A
N18        Cu178   2.070       .  S
N19         N186   1.324       .  A
N19          C20   1.348       .  A
N19        Cu177   2.085       .  S
C20         C189   1.382       .  A
C20         H191   1.082       .  S
C21          C22   1.378       .  A
C21         C188   1.382       .  A
C21         C166   1.439       .  S
C22         H192   1.082       .  S
H23         C188   1.082       .  S
H24         C190   1.082       .  S
N25          N26   1.324       .  A
N25          C29   1.348       .  A
N25         Cu33   2.086       .  S
N26          C27   1.344       .  A
N26         Cu32   2.069       .  S
C27          C28   1.377       .  A
C27          H30   1.082       .  S
C28          C29   1.382       .  A
C28         C161   1.439       .  S
C29          H31   1.082       .  S
Cu32         N35   2.069       .  S
Cu33         N43   2.086       .  S
Cu34         N36   2.069       .  S
Cu34         N42   2.069       .  S
N35          N36   1.321       .  A
N35          C39   1.344       .  A
N36          C37   1.344       .  A
C37          C38   1.383       .  A
C37          H40   1.082   1_655  S
C38          C39   1.383       .  A
C38         C114   1.469   1_665  S
C39          H41   1.082   1_565  S
N42          N43   1.324       .  A
N42          C46   1.344       .  A
N43          C44   1.348       .  A
C44          C45   1.382       .  A
C44          H47   1.082       .  S
C45          C46   1.377       .  A
C45         C163   1.439       .  S
C46          H48   1.082       .  S
N49          N50   1.324       .  A
N49          C53   1.348       .  A
N49         Cu57   2.085       .  S
N50          C51   1.344       .  A
N50         Cu56   2.069       .  S
C51         C220   1.377       .  A
C51          H54   1.082       .  S
C52         C219   1.377       .  A
C52         C221   1.382       .  A
C52         C159   1.439       .  S
C53         C220   1.382       .  A
C53          H55   1.082       .  S
Cu56         N59   2.069       .  S
Cu57        N235   2.085       .  S
Cu58         N60   2.069       .  S
Cu58        N234   2.069       .  S
N59         N228   1.321       .  A
N59          C63   1.344       .  A
N60         N227   1.321   1_554  A
N60          C61   1.345       .  A
C61         C230   1.383   1_554  A
C61          H64   1.082       .  S
C62          C63   1.383       .  A
C62         C229   1.383       .  A
C63          H65   1.082       .  S
N66         N235   1.324       .  A
N66          C70   1.344       .  A
N66        Cu226   2.069       .  S
N67         N234   1.324       .  A
N67          C68   1.348       .  A
N67        Cu225   2.085   1_554  S
C68          C69   1.382       .  A
C68         H239   1.082       .  S
C69         C238   1.377       .  A
C69         C325   1.439       .  S
C70         C237   1.377       .  A
C70         H240   1.082       .  S
H71         C236   1.082       .  S
H72         C238   1.082       .  S
O73         Cu81   2.012   1_565  S
O73          C83   1.277       .  A
O74         Cu81   2.014       .  S
O74          C84   1.277       .  A
O75         Cu81   2.009       .  S
O75          C85   1.277   1_545  A
O76         Cu81   2.009       .  S
O76          C86   1.277   1_545  A
O77         Cu82   2.009       .  S
O77          C86   1.277       .  A
O78         Cu82   2.009       .  S
O78          C85   1.277       .  A
O79         Cu82   2.011       .  S
O79          C84   1.277   1_565  A
O80         Cu82   2.013       .  S
O80          C83   1.277       .  A
Cu81        Cu82   2.380   1_545  S
C83         C162   1.437       .  S
C84         C155   1.437       .  S
C85         C100   1.458       .  S
C86          C99   1.458       .  S
O87         Cu95   2.011       .  S
O87          C97   1.277   1_554  A
O88         Cu95   2.013   1_565  S
O88         C266   1.277       .  A
O89         Cu95   2.009       .  S
O89          C99   1.277   1_545  A
O90        Cu263   2.009       .  S
O90         C100   1.277   1_545  A
O91         Cu96   2.009       .  S
O91         C100   1.277       .  A
O92        Cu264   2.009   1_554  S
O92          C99   1.277       .  A
O93         Cu96   2.011       .  S
O93          C98   1.277       .  A
O94         Cu96   2.014   1_545  S
O94         C265   1.277       .  A
Cu95        O258   2.009   1_554  S
Cu95       Cu264   2.380   1_544  S
Cu96        O260   2.009       .  S
Cu96       Cu263   2.380   1_565  S
C97         C168   1.437       .  S
C97         O262   1.277       .  A
C98         C158   1.437       .  S
C98         O256   1.277       .  A
N101        N102   1.324       .  A
N101        C105   1.348       .  A
N101       Cu109   2.085       .  S
N102        C103   1.344       .  A
N102       Cu108   2.069       .  S
C103        C104   1.377       .  A
C103        H106   1.082       .  S
C104        C105   1.382       .  A
C104        C153   1.439       .  S
C105        H107   1.082       .  S
Cu108       N111   2.069       .  S
Cu109       N119   2.085       .  S
Cu110       N112   2.069       .  S
Cu110       N118   2.069       .  S
N111        N112   1.321       .  A
N111        C115   1.344       .  A
N112        C113   1.344       .  A
C113        C114   1.383       .  A
C113        H116   1.082   1_545  S
C114        C115   1.383       .  A
C115        H117   1.082   1_455  S
N118        N119   1.324       .  A
N118        C122   1.344       .  A
N119        C120   1.348       .  A
C120        C121   1.382       .  A
C120        H123   1.082       .  S
C121        C122   1.378       .  A
C121        C156   1.439       .  S
C122        H124   1.082       .  S
O125       Cu133   2.013       .  S
O125        C135   1.277       .  A
O126       Cu133   2.011   1_455  S
O126        C136   1.277       .  A
O127       Cu133   2.009       .  S
O127        C137   1.277   1_655  A
O128       Cu133   2.009       .  S
O128        C138   1.277   1_655  A
O129       Cu134   2.009       .  S
O129        C138   1.277       .  A
O130       Cu134   2.009       .  S
O130        C137   1.277       .  A
O131       Cu134   2.014       .  S
O131        C136   1.277       .  A
O132       Cu134   2.012       .  S
O132        C135   1.277   1_455  A
Cu133      Cu134   2.380   1_655  S
C135        C164   1.437       .  S
C136        C154   1.437       .  S
C137        C151   1.458       .  S
C138        C152   1.458       .  S
O139       Cu147   2.011       .  S
O139        C149   1.277       .  A
O140       Cu147   2.013   1_455  S
O140        C318   1.277       .  A
O141       Cu147   2.009       .  S
O141        C151   1.277   1_655  A
O142       Cu315   2.008       .  S
O142        C152   1.277   1_655  A
O143       Cu148   2.009   1_554  S
O143        C152   1.277       .  A
O144       Cu316   2.009       .  S
O144        C151   1.277       .  A
O145       Cu148   2.011       .  S
O145        C150   1.277       .  A
O146       Cu148   2.013   1_655  S
O146        C317   1.277   1_556  A
Cu147       O310   2.008       .  S
Cu147      Cu316   2.380   1_655  S
Cu148       O312   2.009       .  S
Cu148      Cu315   2.380   1_456  S
C149        C165   1.437       .  S
C149        O314   1.277       .  A
C150        C160   1.437       .  S
C150        O308   1.277   1_556  A
C153        C154   1.207       .  T
C155        C156   1.207       .  T
C157        C237   1.439       .  S
C157        C158   1.207       .  T
C159        C160   1.207       .  T
C161        C162   1.207       .  T
C163        C164   1.207       .  T
C165        C334   1.207       .  T
C166        C333   1.207       .  T
C167        C168   1.207       .  T
N169        N170   1.324       .  A
N169        C173   1.348       .  A
N169       Cu177   2.085       .  S
N170        C171   1.344       .  A
N170       Cu176   2.070       .  S
C171        C172   1.378       .  A
C171        H174   1.082       .  S
C172        C173   1.382       .  A
C172        C335   1.439       .  S
C173        H175   1.082       .  S
Cu176       N179   2.069       .  S
Cu178       N180   2.069       .  S
N179        C183   1.344       .  A
N180        C181   1.345       .  A
C181        C182   1.383   1_554  A
C181        H184   1.082       .  S
C182        C230   1.470       .  S
C183        H185   1.082       .  S
N186        C190   1.344       .  A
N187        C188   1.348       .  A
C189        C190   1.378       .  A
C189        C334   1.439       .  S
N193        N194   1.324       .  A
N193        C197   1.348       .  A
N193       Cu201   2.086       .  S
N194        C195   1.344       .  A
N194       Cu200   2.069       .  S
C195        C196   1.377       .  A
C195        H198   1.082       .  S
C196        C197   1.382       .  A
C196        C329   1.439       .  S
C197        H199   1.082       .  S
Cu200       N203   2.069       .  S
Cu201       N211   2.086       .  S
Cu202       N204   2.069       .  S
Cu202       N210   2.069       .  S
N203        N204   1.321       .  A
N203        C207   1.344       .  A
N204        C205   1.344       .  A
C205        C206   1.383       .  A
C205        H208   1.082   1_655  S
C206        C207   1.383       .  A
C206        C282   1.469   1_665  S
C207        H209   1.082   1_565  S
N210        N211   1.324       .  A
N210        C214   1.344       .  A
N211        C212   1.348       .  A
C212        C213   1.382       .  A
C212        H215   1.082       .  S
C213        C214   1.377       .  A
C213        C331   1.439       .  S
C214        H216   1.082       .  S
N217        N218   1.324       .  A
N217        C221   1.348       .  A
N217       Cu225   2.085       .  S
N218        C219   1.344       .  A
N218       Cu224   2.069       .  S
C219        H222   1.082       .  S
C220        C327   1.439       .  S
C221        H223   1.082       .  S
Cu224       N227   2.069       .  S
Cu226       N228   2.069       .  S
N227        C231   1.344       .  A
N228        C229   1.345       .  A
C229        H232   1.082       .  S
C230        C231   1.383       .  A
C231        H233   1.082       .  S
N234        C238   1.344       .  A
N235        C236   1.348       .  A
C236        C237   1.382       .  A
O241       Cu249   2.012   1_565  S
O241        C251   1.277       .  A
O242       Cu249   2.014       .  S
O242        C252   1.277       .  A
O243       Cu249   2.009       .  S
O243        C253   1.277   1_545  A
O244       Cu249   2.009       .  S
O244        C254   1.277   1_545  A
O245       Cu250   2.009       .  S
O245        C254   1.277       .  A
O246       Cu250   2.009       .  S
O246        C253   1.277       .  A
O247       Cu250   2.011       .  S
O247        C252   1.277   1_565  A
O248       Cu250   2.013       .  S
O248        C251   1.277       .  A
Cu249      Cu250   2.380   1_545  S
C251        C330   1.437       .  S
C252        C323   1.437       .  S
C253        C268   1.458       .  S
C254        C267   1.458       .  S
O255       Cu263   2.011       .  S
O255        C265   1.277       .  A
O256       Cu263   2.013   1_565  S
O257       Cu263   2.009       .  S
O257        C267   1.277   1_545  A
O258        C268   1.277   1_545  A
O259       Cu264   2.009       .  S
O259        C268   1.277       .  A
O260        C267   1.277       .  A
O261       Cu264   2.011       .  S
O261        C266   1.277   1_556  A
O262       Cu264   2.014   1_545  S
C265        C336   1.437       .  S
C266        C326   1.437       .  S
N269        N270   1.324       .  A
N269        C273   1.348       .  A
N269       Cu277   2.085       .  S
N270        C271   1.344       .  A
N270       Cu276   2.069       .  S
C271        C272   1.377       .  A
C271        H274   1.082       .  S
C272        C273   1.382       .  A
C272        C321   1.439       .  S
C273        H275   1.082       .  S
Cu276       N279   2.069       .  S
Cu277       N287   2.085       .  S
Cu278       N280   2.069       .  S
Cu278       N286   2.069       .  S
N279        N280   1.321       .  A
N279        C283   1.344       .  A
N280        C281   1.344       .  A
C281        C282   1.383       .  A
C281        H284   1.082   1_545  S
C282        C283   1.383       .  A
C283        H285   1.082   1_455  S
N286        N287   1.324       .  A
N286        C290   1.344       .  A
N287        C288   1.348       .  A
C288        C289   1.382       .  A
C288        H291   1.082       .  S
C289        C290   1.378       .  A
C289        C324   1.439       .  S
C290        H292   1.082       .  S
O293       Cu301   2.013       .  S
O293        C303   1.277       .  A
O294       Cu301   2.011   1_455  S
O294        C304   1.277       .  A
O295       Cu301   2.009       .  S
O295        C305   1.277   1_655  A
O296       Cu301   2.009       .  S
O296        C306   1.277   1_655  A
O297       Cu302   2.009       .  S
O297        C306   1.277       .  A
O298       Cu302   2.009       .  S
O298        C305   1.277       .  A
O299       Cu302   2.014       .  S
O299        C304   1.277       .  A
O300       Cu302   2.012       .  S
O300        C303   1.277   1_455  A
Cu301      Cu302   2.380   1_655  S
C303        C332   1.437       .  S
C304        C322   1.437       .  S
C305        C319   1.458       .  S
C306        C320   1.458       .  S
O307       Cu315   2.011       .  S
O307        C317   1.277       .  A
O308       Cu315   2.013   1_455  S
O309       Cu315   2.009   1_556  S
O309        C319   1.277   1_655  A
O310        C320   1.277   1_655  A
O311       Cu316   2.009       .  S
O311        C320   1.277       .  A
O312        C319   1.277       .  A
O313       Cu316   2.011       .  S
O313        C318   1.277       .  A
O314       Cu316   2.013   1_655  S
C317        C333   1.437       .  S
C318        C328   1.437       .  S
C321        C322   1.207       .  T
C323        C324   1.207       .  T
C325        C326   1.207       .  T
C327        C328   1.207       .  T
C329        C330   1.207       .  T
C331        C332   1.207       .  T
C335        C336   1.207       .  T
