geometry optimzed in LAMMPS
_audit_creation_date              2020-12-01 
_audit_creation_method            'lammps2cif' 
_symmetry_space_group_name_H-M    'P1' 
_symmetry_Int_Tables_number       1 
_symmetry_cell_setting            triclinic 
loop_ 
_symmetry_equiv_pos_as_xyz 
  x,y,z 
_cell_length_a                    32.207322 
_cell_length_b                    31.669399032058454 
_cell_length_c                    32.23256037376099 
_cell_angle_alpha                 90.13216949108362 
_cell_angle_beta                  90.21142180348794 
_cell_angle_gamma                 90.50299888332452 
loop_ 
_atom_site_label 
_atom_site_type_symbol 
_atom_site_fract_x 
_atom_site_fract_y 
_atom_site_fract_z 
_atom_site_charge 
C1          C  0.49729853  0.49788228  0.99892058    -0.02500
N2          N  0.36766393  0.79441517  0.78479341    -0.27300
N3          N  0.40631900  0.80707185  0.79165336    -0.35200
C4          C  0.42607833  0.77807645  0.81442215     0.01000
C5          C  0.39892821  0.74511273  0.82270610     0.07100
C6          C  0.36201432  0.75656305  0.80324592    -0.06000
H7          H  0.45783994  0.78141608  0.82504793     0.07700
H8          H  0.33325567  0.73872944  0.80218938     0.08900
Cu9        Cu  0.43169250  0.86398640  0.77314343     0.44200
Cu10       Cu  0.32467007  0.83084320  0.75175378     0.42000
Cu11       Cu  0.36064657  0.94056651  0.74030967     0.43900
N12         N  0.44948252  0.92551715  0.76159967    -0.34700
N13         N  0.42240656  0.95492465  0.75178825    -0.28900
C14         C  0.44247487  0.99210356  0.74776627    -0.05000
C15         C  0.48428708  0.98541105  0.75490683     0.07200
C16         C  0.48767316  0.94286610  0.76355590     0.01000
H17         H  0.42791622  0.02146004  0.73907379     0.08600
H18         H  0.51567656  0.92585030  0.77110143     0.07700
N19         N  0.30449734  0.91752290  0.71806416    -0.36100
N20         N  0.29133681  0.87793861  0.72068629    -0.28300
C21         C  0.25543076  0.87416889  0.69916844    -0.03600
C22         C  0.24562742  0.91331460  0.68227409     0.05100
C23         C  0.27761753  0.93975231  0.69514647     0.03100
H24         H  0.23874586  0.84470684  0.69482650     0.08300
H25         H  0.28173194  0.97279880  0.68767547     0.07100
N26         N  0.63614518  0.20335150  0.79013004    -0.27300
N27         N  0.59609306  0.19382061  0.78987851    -0.35200
C28         C  0.57524602  0.22383782  0.81030633     0.01000
C29         C  0.60333320  0.25373027  0.82460556     0.07100
C30         C  0.64177055  0.23987837  0.81106574    -0.06000
H31         H  0.54207580  0.22324048  0.81552506     0.07700
H32         H  0.67155220  0.25522207  0.81557695     0.08900
Cu33       Cu  0.57084207  0.13863242  0.76631451     0.44200
Cu34       Cu  0.68079806  0.16521915  0.76248644     0.42000
Cu35       Cu  0.64294293  0.05860951  0.73979599     0.43900
N36         N  0.55320066  0.07681473  0.75550521    -0.34700
N37         N  0.58020458  0.04650529  0.74845296    -0.28900
C38         C  0.55989188  0.00923095  0.74706587    -0.05000
C39         C  0.51808663  0.01672932  0.75310268     0.07200
C40         C  0.51489588  0.05988735  0.75818692     0.01000
H41         H  0.57442671  0.97903260  0.74178061     0.08600
H42         H  0.48706815  0.07752920  0.76480823     0.07700
N43         N  0.70157791  0.08088482  0.72417363    -0.36100
N44         N  0.71556406  0.11952912  0.73179004    -0.28300
C45         C  0.75332789  0.12406849  0.71434853    -0.03600
C46         C  0.76355496  0.08644945  0.69477307     0.05100
C47         C  0.72986032  0.05997684  0.70176883     0.03100
H48         H  0.77103223  0.15324171  0.71431548     0.08300
H49         H  0.72565123  0.02801479  0.69050622     0.07100
N50         N  0.20725297  0.37594000  0.22135594    -0.27300
N51         N  0.19640035  0.41610553  0.22048855    -0.35200
C52         C  0.22570065  0.43854672  0.20061307     0.01000
C53         C  0.25676027  0.41151639  0.18791211     0.07100
C54         C  0.24392471  0.37192226  0.20170480    -0.06000
H55         H  0.22367824  0.47205678  0.19460404     0.07700
H56         H  0.25895403  0.34205323  0.19614981     0.08900
Cu57       Cu  0.13967823  0.43920042  0.23969049     0.44200
Cu58       Cu  0.16987971  0.32830961  0.24683878     0.42000
Cu59       Cu  0.06306150  0.36121210  0.26222292     0.43900
N60         N  0.07750321  0.45343624  0.24667127    -0.34700
N61         N  0.04876664  0.42407771  0.25260978    -0.28900
C62         C  0.01119941  0.44228938  0.25285242    -0.05000
C63         C  0.01672790  0.48525236  0.24727572     0.07200
C64         C  0.05912285  0.49128228  0.24354174     0.01000
H65         H  0.98214558  0.42559841  0.25753450     0.08600
H66         H  0.07534241  0.52080610  0.23811191     0.07700
N67         N  0.08523127  0.30216593  0.27809237    -0.36100
N68         N  0.12414199  0.28995027  0.27371819    -0.28300
C69         C  0.12803119  0.25103136  0.29022202    -0.03600
C70         C  0.08956873  0.23808179  0.30512167     0.05100
C71         C  0.06342765  0.27152228  0.29704355     0.03100
H72         H  0.15675311  0.23362656  0.29162114     0.08300
H73         H  0.03117285  0.27420093  0.30583478     0.07100
N74         N  0.87155996  0.70928755  0.27600864    -0.27300
N75         N  0.91048661  0.69765512  0.28183617    -0.35200
C76         C  0.93069576  0.72770805  0.30356711     0.01000
C77         C  0.90358958  0.76038321  0.31180412     0.07100
C78         C  0.86616347  0.74734379  0.29408056    -0.06000
H79         H  0.96248003  0.72493850  0.31406213     0.07700
H80         H  0.83705699  0.76411968  0.29457985     0.08900
Cu81       Cu  0.93508293  0.64026227  0.26350277     0.44200
Cu82       Cu  0.82777264  0.67161795  0.24457392     0.42000
Cu83       Cu  0.86320541  0.56406560  0.22495498     0.43900
N84         N  0.95144994  0.57839211  0.25089212    -0.34700
N85         N  0.92399285  0.54947040  0.23922286    -0.28900
C86         C  0.94286953  0.51188287  0.23626534    -0.05000
C87         C  0.98437361  0.51764692  0.24600389     0.07200
C88         C  0.98882638  0.56018884  0.25496390     0.01000
H89         H  0.92765976  0.48274253  0.22699265     0.08600
H90         H  0.01687615  0.57649495  0.26470778     0.07700
N91         N  0.80775590  0.58793676  0.20310924    -0.36100
N92         N  0.79409901  0.62655786  0.21025739    -0.28300
C93         C  0.75764622  0.63136021  0.19010013    -0.03600
C94         C  0.74857932  0.59427206  0.16876855     0.05100
C95         C  0.78094950  0.56752115  0.17796136     0.03100
H96         H  0.73966807  0.66005491  0.19000756     0.08300
H97         H  0.78484546  0.53544596  0.16712169     0.07100
C98         C  0.99922193  0.00074924  0.50074609    -0.02500
C99         C  0.97569721  0.96347126  0.47680144    -0.19900
C100        C  0.94231272  0.97150290  0.44845331     0.36300
C101        C  0.92750490  0.93931758  0.42166606    -0.25800
C102        C  0.94221912  0.89811233  0.42462875     0.02800
C103        C  0.96903798  0.88794067  0.45732910     0.27600
C104        C  0.98379678  0.92003049  0.48377582    -0.25000
N105        N  0.92208738  0.01162909  0.44778837    -0.82400
H106        H  0.90434147  0.94641845  0.39829628     0.13400
C107        C  0.93019584  0.86566530  0.39333218     0.02700
N108        N  0.98132360  0.84483892  0.46351150    -0.80900
H109        H  0.00079372  0.90972154  0.51058990     0.18200
C110        C  0.96094987  0.85021433  0.36688025    -0.25800
C111        C  0.95243014  0.81745832  0.33856537     0.36300
C112        C  0.91235760  0.79876069  0.33739441    -0.19800
C113        C  0.88101010  0.81562471  0.36266753    -0.25000
C114        C  0.88958517  0.84885760  0.39074810     0.27600
H115        H  0.99192682  0.86379069  0.36853667     0.13400
N116        N  0.98431609  0.80346328  0.31077815    -0.82300
H117        H  0.85016141  0.80176162  0.36175352     0.18200
N118        N  0.85760130  0.86481552  0.41734881    -0.80900
H119        H  0.01195352  0.82030619  0.31582658     0.33900
H120        H  0.97464883  0.81048708  0.28059167     0.38400
H121        H  0.82944031  0.84918683  0.41152094     0.33800
H122        H  0.86590565  0.85775737  0.44792957     0.30500
H123        H  0.00188451  0.84243427  0.48855370     0.33800
H124        H  0.95474342  0.82746581  0.47134345     0.30500
H125        H  0.90653760  0.01498734  0.47599508     0.38400
H126        H  0.89928585  0.01260150  0.42464499     0.33900
C127        C  0.01149758  0.03422057  0.46609421    -0.19900
C128        C  0.04511270  0.02712440  0.43816221     0.36300
C129        C  0.05923875  0.05922473  0.41142933    -0.25800
C130        C  0.03899807  0.09791847  0.40886593     0.02800
C131        C  0.00243807  0.10358787  0.43173004     0.27600
C132        C  0.98829845  0.07128912  0.45806385    -0.25000
N133        N  0.06388376  0.98663502  0.43461959    -0.82400
H134        H  0.08561936  0.05330257  0.39152400     0.13400
C135        C  0.05436302  0.13109991  0.37991237     0.02700
N136        N  0.97956736  0.14224450  0.42808703    -0.80900
H137        H  0.95796299  0.07566460  0.47101234     0.18200
C138        C  0.02795780  0.14538986  0.34833918    -0.25800
C139        C  0.03962560  0.17900319  0.32241394     0.36300
C140        C  0.07863405  0.19896713  0.32815847    -0.19800
C141        C  0.10613693  0.18304526  0.35811439    -0.25000
C142        C  0.09426403  0.14945659  0.38430161     0.27600
H143        H  0.99780541  0.13046910  0.34425507     0.13400
N144        N  0.01199341  0.19287570  0.29017881    -0.82300
H145        H  0.13618447  0.19810413  0.36240164     0.18200
N146        N  0.12202062  0.13476640  0.41606680    -0.80900
H147        H  0.98449713  0.17507565  0.29024830     0.33900
H148        H  0.02643333  0.18704636  0.26176193     0.38400
H149        H  0.15014534  0.15147614  0.41513008     0.33800
H150        H  0.10853575  0.14144261  0.44477471     0.30500
H151        H  0.95312827  0.14154146  0.44680659     0.33800
H152        H  0.99848206  0.16666753  0.43949338     0.30500
H153        H  0.05964441  0.97577876  0.40423517     0.38400
H154        H  0.09579396  0.99021614  0.43991890     0.33900
C155        C  0.96829281  0.01628347  0.53590273    -0.19900
C156        C  0.94781472  0.98702544  0.56287174     0.36300
C157        C  0.91529959  0.00043739  0.58873482    -0.25800
C158        C  0.90445419  0.04293780  0.59169709     0.02800
C159        C  0.92851276  0.07304989  0.57066031     0.27600
C160        C  0.96085917  0.05959414  0.54479108    -0.25000
N161        N  0.96087884  0.94397477  0.56554590    -0.82400
H162        H  0.89863298  0.97755297  0.60744658     0.13400
C163        C  0.86828938  0.05519062  0.61754690     0.02700
N164        N  0.91975331  0.11728957  0.57518021    -0.80900
H165        H  0.98035610  0.08416187  0.53240173     0.18200
C166        C  0.87373741  0.08286369  0.65128537    -0.25800
C167        C  0.84015813  0.09386029  0.67695067     0.36300
C168        C  0.80022352  0.07693546  0.66848556    -0.19800
C169        C  0.79495406  0.04957701  0.63442675    -0.25000
C170        C  0.82840534  0.03874488  0.60882270     0.27600
H171        H  0.90450531  0.09519290  0.65810948     0.13400
N172        N  0.84680599  0.12113039  0.71209369    -0.82300
H173        H  0.76439240  0.03695465  0.62729371     0.18200
N174        N  0.82203047  0.01126246  0.57374782    -0.80900
H175        H  0.87783060  0.13102689  0.71370899     0.33900
H176        H  0.84112769  0.10338537  0.73882234     0.38400
H177        H  0.79094606  0.00167453  0.57168954     0.33800
H178        H  0.82837417  0.02870850  0.54696881     0.30500
H179        H  0.94040460  0.13558149  0.55768981     0.33800
H180        H  0.89018928  0.12249267  0.56280347     0.30500
H181        H  0.99053574  0.94408486  0.57882061     0.38400
H182        H  0.94186899  0.92656735  0.58555601     0.33900
C183        C  0.21088615  0.92500304  0.65387765    -0.19900
C184        C  0.17149466  0.90491495  0.65527073     0.36300
C185        C  0.13986324  0.91801685  0.62798905    -0.25800
C186        C  0.14641974  0.95122530  0.59999959     0.02800
C187        C  0.18559117  0.97113682  0.59828372     0.27600
C188        C  0.21732740  0.95789074  0.62518215    -0.25000
N189        N  0.16324983  0.87216751  0.68496924    -0.82400
H190        H  0.10958709  0.90286242  0.62907364     0.13400
C191        C  0.11187941  0.96468314  0.57257553     0.02700
N192        N  0.19301191  0.00453154  0.56901213    -0.80900
H193        H  0.24747057  0.97312558  0.62324522     0.18200
C194        C  0.09415731  0.00436100  0.57784993    -0.25800
C195        C  0.06072822  0.01770076  0.55286923     0.36300
C196        C  0.04136499  0.98919279  0.52396798    -0.19800
C197        C  0.06432063  0.95199150  0.51548393    -0.25000
C198        C  0.09805248  0.93900372  0.53990387     0.27600
H199        H  0.10709944  0.02544415  0.60116175     0.13400
N200        N  0.04820754  0.06091666  0.55563063    -0.82300
H201        H  0.05808607  0.93311184  0.48841236     0.18200
N202        N  0.11885571  0.89998990  0.53116207    -0.80900
H203        H  0.06440508  0.07694947  0.57910650     0.33900
H204        H  0.05653006  0.07555095  0.52780462     0.38400
H205        H  0.10465871  0.88416792  0.50631093     0.33800
H206        H  0.14908488  0.90745443  0.52179786     0.30500
H207        H  0.22341202  0.01607476  0.57181516     0.33800
H208        H  0.19034500  0.99158660  0.53923911     0.30500
H209        H  0.16503731  0.88578503  0.71450439     0.38400
H210        H  0.13293847  0.86052409  0.68156591     0.33900
C211        C  0.29287582  0.42284362  0.16125153    -0.19900
C212        C  0.33109502  0.40121202  0.16332943     0.36300
C213        C  0.36403758  0.41371592  0.13727716    -0.25800
C214        C  0.35958710  0.44736861  0.10943960     0.02800
C215        C  0.32175551  0.46914153  0.10752653     0.27600
C216        C  0.28883596  0.45662019  0.13326789    -0.25000
N217        N  0.33667835  0.36723621  0.19223058    -0.82400
H218        H  0.39337487  0.39727611  0.13868928     0.13400
C219        C  0.39471719  0.45987754  0.08236793     0.02700
N220        N  0.31702795  0.50399380  0.07943112    -0.80900
H221        H  0.25967897  0.47321763  0.13105169     0.18200
C222        C  0.39154563  0.45341472  0.03959293    -0.25800
C223        C  0.42360846  0.46572311  0.01272582     0.36300
C224        C  0.46086991  0.48438214  0.02856390    -0.19800
C225        C  0.46186646  0.49349549  0.07172723    -0.25000
C226        C  0.42992507  0.48055991  0.09861671     0.27600
H227        H  0.36376620  0.43871325  0.02684687     0.13400
N228        N  0.41800089  0.45899023  0.96915872    -0.82300
H229        H  0.48701098  0.51162728  0.08520126     0.18200
N230        N  0.43276732  0.48901321  0.14239807    -0.80900
H231        H  0.41230312  0.42683371  0.96409081     0.33900
H232        H  0.39168818  0.47556946  0.95969234     0.38400
H233        H  0.46088968  0.50407240  0.14967897     0.33800
H234        H  0.40920710  0.51015782  0.14995888     0.30500
H235        H  0.28719146  0.51653481  0.08155261     0.33800
H236        H  0.33763623  0.52786730  0.08888327     0.30500
H237        H  0.33476746  0.37994118  0.22212515     0.38400
H238        H  0.36638973  0.35451387  0.18948161     0.33900
C239        C  0.53557702  0.51534024  0.02432703    -0.19900
C240        C  0.55637690  0.48921824  0.05368433     0.36300
C241        C  0.59012932  0.50494925  0.07679034    -0.25800
C242        C  0.60519843  0.54591654  0.07077265     0.02800
C243        C  0.58711166  0.57147046  0.04023101     0.27600
C244        C  0.55294486  0.55604279  0.01726498    -0.25000
N245        N  0.54295550  0.44657138  0.06063374    -0.82400
H246        H  0.60493986  0.48478983  0.09948569     0.13400
C247        C  0.64157962  0.56065921  0.09517302     0.02700
N248        N  0.60440237  0.61256306  0.03174782    -0.80900
H249        H  0.54140306  0.57581477  0.99268599     0.18200
C250        C  0.68147514  0.55217614  0.08039986    -0.25800
C251        C  0.71691260  0.56390414  0.10341823     0.36300
C252        C  0.71219667  0.58454388  0.14202688    -0.19800
C253        C  0.67218970  0.59395832  0.15626465    -0.25000
C254        C  0.63672316  0.58177347  0.13336781     0.27600
H255        H  0.68487335  0.53602548  0.05094067     0.13400
N256        N  0.75764177  0.55516919  0.08763140    -0.82300
H257        H  0.66860800  0.60953263  0.18598775     0.18200
N258        N  0.59584714  0.58944316  0.14931367    -0.82300
H259        H  0.75565938  0.53965938  0.05901626     0.33900
H260        H  0.77242002  0.58414930  0.08216207     0.38400
H261        H  0.59765778  0.60445968  0.17818844     0.33800
H262        H  0.58110413  0.61044633  0.12923013     0.30500
H263        H  0.58817681  0.62718750  0.00767082     0.33800
H264        H  0.60023874  0.63130825  0.05810699     0.30500
H265        H  0.53558129  0.44325362  0.09203462     0.38400
H266        H  0.56779819  0.42660956  0.05415277     0.33900
C267        C  0.59283054  0.29153828  0.84944508    -0.19900
C268        C  0.61378032  0.30184039  0.88678071     0.36300
C269        C  0.59894401  0.33506416  0.91159012    -0.25800
C270        C  0.56412834  0.35828322  0.89950147     0.02800
C271        C  0.54392004  0.34886894  0.86176906     0.27600
C272        C  0.55829882  0.31536771  0.83727246    -0.25000
N273        N  0.64857388  0.27736234  0.90046820    -0.82400
H274        H  0.61431218  0.34272705  0.94064576     0.13400
C275        C  0.54876933  0.39232016  0.92670726     0.02700
N276        N  0.50903419  0.37351135  0.84846673    -0.80900
H277        H  0.54225524  0.30751273  0.80862541     0.18200
C278        C  0.56446649  0.43319133  0.92190124    -0.25800
C279        C  0.54892870  0.46684830  0.94534209     0.36300
C280        C  0.51572879  0.46016983  0.97385337    -0.19800
C281        C  0.50268424  0.41786562  0.98046368    -0.25000
C282        C  0.51837478  0.38423183  0.95687359     0.27600
H283        H  0.58864399  0.43916760  0.89930209     0.13400
N284        N  0.56620175  0.50816530  0.93902722    -0.82300
H285        H  0.48071594  0.41021396  0.00451518     0.18200
N286        N  0.50406976  0.34170025  0.96390600    -0.80900
H287        H  0.56324791  0.51590315  0.90766497     0.33900
H288        H  0.59789167  0.50708639  0.94611590     0.38400
H289        H  0.48220534  0.34085650  0.98778894     0.33800
H290        H  0.48864332  0.33140290  0.93710419     0.30500
H291        H  0.49812851  0.36292864  0.81963597     0.33800
H292        H  0.48492050  0.36855439  0.86955374     0.30500
H293        H  0.67352178  0.28474670  0.88112034     0.38400
H294        H  0.65778097  0.28663145  0.93029554     0.33900
C295        C  0.47749050  0.53242192  0.97026671    -0.19900
C296        C  0.46970509  0.52856906  0.92664030     0.36300
C297        C  0.45446419  0.56311142  0.90421169    -0.25800
C298        C  0.44453176  0.60114005  0.92365754     0.02800
C299        C  0.44824046  0.60426835  0.96723059     0.27600
C300        C  0.46331700  0.56974957  0.98972829    -0.25000
N301        N  0.47460492  0.48957328  0.90466115    -0.82400
H302        H  0.45010095  0.56007578  0.87095811     0.13400
C303        C  0.43234755  0.63730812  0.89721484     0.02700
N304        N  0.43812664  0.64205705  0.98975771    -0.80900
H305        H  0.46612631  0.57301061  0.02309764     0.18200
C306        C  0.39089597  0.65049126  0.89592760    -0.25800
C307        C  0.37897250  0.68512669  0.87147395     0.36300
C308        C  0.40889780  0.70674341  0.84739466    -0.19800
C309        C  0.45022552  0.69266380  0.84822035    -0.25000
C310        C  0.46223425  0.65835546  0.87290738     0.27600
H311        H  0.36783625  0.63419513  0.91450450     0.13400
N312        N  0.33679853  0.69894114  0.87239922    -0.82300
H313        H  0.47345188  0.70850001  0.82952863     0.18200
N314        N  0.50472620  0.64477008  0.87353162    -0.80900
H315        H  0.32928966  0.70623266  0.90310519     0.33900
H316        H  0.31781447  0.67377192  0.86282728     0.38400
H317        H  0.52284452  0.66334963  0.85368889     0.33800
H318        H  0.51628495  0.64976892  0.90350094     0.30500
H319        H  0.46545220  0.65329876  0.00368421     0.33800
H320        H  0.42786357  0.66600760  0.97021055     0.30500
H321        H  0.49494591  0.49475611  0.87994332     0.38400
H322        H  0.44585912  0.48081612  0.89198407     0.33900
loop_ 
_geom_bond_atom_site_label_1 
_geom_bond_atom_site_label_2 
_geom_bond_distance 
_geom_bond_site_symmetry_2 
_ccdc_geom_bond_type 
C1          C224   1.573   1_556  S
C1          C239   1.573   1_556  S
C1          C280   1.563       .  S
C1          C295   1.571       .  S
N2            N3   1.322       .  A
N2            C6   1.351       .  A
N2          Cu10   2.099       .  S
N3            C4   1.340       .  A
N3           Cu9   2.063       .  S
C4            C5   1.383       .  A
C4            H7   1.082       .  S
C5            C6   1.393       .  A
C5          C308   1.491       .  S
C6            H8   1.081       .  S
Cu9          N12   2.061       .  S
Cu10         N20   2.099       .  S
Cu11         N13   2.068       .  S
Cu11         N19   2.069       .  S
N12          N13   1.320       .  A
N12          C16   1.344       .  A
N13          C14   1.345       .  A
C14          C15   1.384       .  A
C14          H17   1.082   1_565  S
C15          C16   1.382       .  A
C15          C39   1.468   1_565  S
C16          H18   1.082       .  S
N19          N20   1.323       .  A
N19          C23   1.341       .  A
N20          C21   1.351       .  A
C21          C22   1.394       .  A
C21          H24   1.081       .  S
C22          C23   1.384       .  A
C22         C183   1.493       .  S
C23          H25   1.082       .  S
N26          N27   1.322       .  A
N26          C30   1.348       .  A
N26         Cu34   2.087       .  S
N27          C28   1.342       .  A
N27         Cu33   2.063       .  S
C28          C29   1.381       .  A
C28          H31   1.082       .  S
C29          C30   1.389       .  A
C29         C267   1.481       .  S
C30          H32   1.081       .  S
Cu33         N36   2.062       .  S
Cu34         N44   2.087       .  S
Cu35         N37   2.073       .  S
Cu35         N43   2.074       .  S
N36          N37   1.321       .  A
N36          C40   1.344       .  A
N37          C38   1.345       .  A
C38          C39   1.384       .  A
C38          H41   1.082   1_545  S
C39          C40   1.381       .  A
C40          H42   1.082       .  S
N43          N44   1.323       .  A
N43          C47   1.343       .  A
N44          C45   1.348       .  A
C45          C46   1.390       .  A
C45          H48   1.081       .  S
C46          C47   1.385       .  A
C46         C168   1.489       .  S
C47          H49   1.082       .  S
N50          N51   1.322       .  A
N50          C54   1.349       .  A
N50         Cu58   2.093       .  S
N51          C52   1.342       .  A
N51         Cu57   2.070       .  S
C52          C53   1.385       .  A
C52          H55   1.082       .  S
C53          C54   1.391       .  A
C53         C211   1.491       .  S
C54          H56   1.081       .  S
Cu57         N60   2.069       .  S
Cu58         N68   2.093       .  S
Cu59         N61   2.071       .  S
Cu59         N67   2.072       .  S
N60          N61   1.321       .  A
N60          C64   1.345       .  A
N61          C62   1.345       .  A
C62          C63   1.383       .  A
C62          H65   1.082   1_455  S
C63          C64   1.383       .  A
C63          C87   1.469   1_455  S
C64          H66   1.082       .  S
N67          N68   1.323       .  A
N67          C71   1.342       .  A
N68          C69   1.350       .  A
C69          C70   1.389       .  A
C69          H72   1.082       .  S
C70          C71   1.383       .  A
C70         C140   1.486       .  S
C71          H73   1.082       .  S
N74          N75   1.323       .  A
N74          C78   1.350       .  A
N74         Cu82   2.096       .  S
N75          C76   1.343       .  A
N75         Cu81   2.075       .  S
C76          C77   1.386       .  A
C76          H79   1.081       .  S
C77          C78   1.391       .  A
C77         C112   1.492       .  S
C78          H80   1.082       .  S
Cu81         N84   2.073       .  S
Cu82         N92   2.096       .  S
Cu83         N85   2.066       .  S
Cu83         N91   2.067       .  S
N84          N85   1.321       .  A
N84          C88   1.345       .  A
N85          C86   1.345       .  A
C86          C87   1.382       .  A
C86          H89   1.082       .  S
C87          C88   1.383       .  A
C88          H90   1.082   1_655  S
N91          N92   1.323       .  A
N91          C95   1.343       .  A
N92          C93   1.350       .  A
C93          C94   1.388       .  A
C93          H96   1.082       .  S
C94          C95   1.381       .  A
C94         C252   1.482       .  S
C95          H97   1.082       .  S
C98          C99   1.594   1_545  S
C98         C127   1.590   1_655  S
C98         C155   1.591       .  S
C98         C196   1.593   1_645  S
C99         C100   1.433       .  A
C99         C104   1.421       .  A
C100        C101   1.413       .  A
C100        N105   1.433   1_565  S
C101        C102   1.396       .  A
C101        H106   1.084       .  S
C102        C103   1.400       .  A
C102        C107   1.486       .  S
C103        C104   1.404       .  A
C103        N108   1.439       .  S
C104        H109   1.074   1_655  S
N105        H125   1.045       .  S
N105        H126   1.046       .  S
C107        C110   1.400       .  A
C107        C114   1.410       .  A
N108        H123   1.046   1_655  S
N108        H124   1.046       .  S
C110        C111   1.405       .  A
C110        H115   1.084       .  S
C111        C112   1.416       .  A
C111        N116   1.437       .  S
C112        C113   1.408       .  A
C113        C114   1.411       .  A
C113        H117   1.083       .  S
C114        N118   1.437       .  S
N116        H119   1.046   1_655  S
N116        H120   1.046       .  S
N118        H121   1.046       .  S
N118        H122   1.046       .  S
C127        C128   1.430       .  A
C127        C132   1.421   1_455  A
C128        C129   1.408       .  A
C128        N133   1.427   1_545  S
C129        C130   1.396       .  A
C129        H134   1.084       .  S
C130        C131   1.404       .  A
C130        C135   1.490       .  S
C131        C132   1.405   1_455  A
C131        N136   1.439   1_455  S
C132        H137   1.074       .  S
N133        H153   1.045       .  S
N133        H154   1.046       .  S
C135        C138   1.402       .  A
C135        C142   1.412       .  A
N136        H151   1.046       .  S
N136        H152   1.046       .  S
C138        C139   1.404       .  A
C138        H143   1.084   1_455  S
C139        C140   1.413       .  A
C139        N144   1.438       .  S
C140        C141   1.405       .  A
C141        C142   1.411       .  A
C141        H145   1.083       .  S
C142        N146   1.438       .  S
N144        H147   1.046   1_455  S
N144        H148   1.046       .  S
N146        H149   1.046       .  S
N146        H150   1.046       .  S
C155        C156   1.431   1_545  A
C155        C160   1.423       .  A
C156        C157   1.409   1_565  A
C156        N161   1.433       .  S
C157        C158   1.397       .  A
C157        H162   1.084   1_545  S
C158        C159   1.401       .  A
C158        C163   1.488       .  S
C159        C160   1.405       .  A
C159        N164   1.439       .  S
C160        H165   1.074       .  S
N161        H181   1.045       .  S
N161        H182   1.046       .  S
C163        C166   1.405       .  A
C163        C170   1.409       .  A
N164        H179   1.046       .  S
N164        H180   1.046       .  S
C166        C167   1.410       .  A
C166        H171   1.084       .  S
C167        C168   1.414       .  A
C167        N172   1.437       .  S
C168        C169   1.406       .  A
C169        C170   1.404       .  A
C169        H173   1.083       .  S
C170        N174   1.438       .  S
N172        H175   1.046       .  S
N172        H176   1.046       .  S
N174        H177   1.045       .  S
N174        H178   1.046       .  S
C183        C184   1.415       .  A
C183        C188   1.409       .  A
C184        C185   1.409       .  A
C184        N189   1.437       .  S
C185        C186   1.402       .  A
C185        H190   1.084       .  S
C186        C187   1.407       .  A
C186        C191   1.484       .  S
C187        C188   1.405       .  A
C187        N192   1.438   1_565  S
C188        H193   1.082       .  S
N189        H209   1.045       .  S
N189        H210   1.046       .  S
C191        C194   1.395   1_565  A
C191        C198   1.398       .  A
N192        H207   1.046       .  S
N192        H208   1.046   1_545  S
C194        C195   1.410       .  A
C194        H199   1.084       .  S
C195        C196   1.433   1_545  A
C195        N200   1.433       .  S
C196        C197   1.423       .  A
C197        C198   1.404       .  A
C197        H201   1.074       .  S
C198        N202   1.438       .  S
N200        H203   1.046       .  S
N200        H204   1.045       .  S
N202        H205   1.046       .  S
N202        H206   1.046       .  S
C211        C212   1.415       .  A
C211        C216   1.407       .  A
C212        C213   1.410       .  A
C212        N217   1.437       .  S
C213        C214   1.403       .  A
C213        H218   1.084       .  S
C214        C215   1.407       .  A
C214        C219   1.483       .  S
C215        C216   1.404       .  A
C215        N220   1.438       .  S
C216        H221   1.082       .  S
N217        H237   1.046       .  S
N217        H238   1.046       .  S
C219        C222   1.397       .  A
C219        C226   1.404       .  A
N220        H235   1.045       .  S
N220        H236   1.046       .  S
C222        C223   1.403       .  A
C222        H227   1.084       .  S
C223        C224   1.425       .  A
C223        N228   1.430   1_554  S
C224        C225   1.420       .  A
C225        C226   1.406       .  A
C225        H229   1.078       .  S
C226        N230   1.438       .  S
N228        H231   1.046       .  S
N228        H232   1.046       .  S
N230        H233   1.046       .  S
N230        H234   1.046       .  S
C239        C240   1.427       .  A
C239        C244   1.420       .  A
C240        C241   1.403       .  A
C240        N245   1.433       .  S
C241        C242   1.395       .  A
C241        H246   1.084       .  S
C242        C243   1.404       .  A
C242        C247   1.480       .  S
C243        C244   1.407       .  A
C243        N248   1.438       .  S
C244        H249   1.078   1_554  S
N245        H265   1.046       .  S
N245        H266   1.045       .  S
C247        C250   1.400       .  A
C247        C254   1.410       .  A
N248        H263   1.045       .  S
N248        H264   1.045       .  S
C250        C251   1.406       .  A
C250        H255   1.084       .  S
C251        C252   1.414       .  A
C251        N256   1.438       .  S
C252        C253   1.404       .  A
C253        C254   1.408       .  A
C253        H257   1.084       .  S
C254        N258   1.437       .  S
N256        H259   1.045       .  S
N256        H260   1.046       .  S
N258        H261   1.045       .  S
N258        H262   1.045       .  S
C267        C268   1.414       .  A
C267        C272   1.405       .  A
C268        C269   1.408       .  A
C268        N273   1.437       .  S
C269        C270   1.401       .  A
C269        H274   1.084       .  S
C270        C271   1.407       .  A
C270        C275   1.478       .  S
C271        C272   1.404       .  A
C271        N276   1.438       .  S
C272        H277   1.084       .  S
N273        H293   1.044       .  S
N273        H294   1.046       .  S
C275        C278   1.395       .  A
C275        C282   1.405       .  A
N276        H291   1.046       .  S
N276        H292   1.045       .  S
C278        C279   1.402       .  A
C278        H283   1.084       .  S
C279        C280   1.427       .  A
C279        N284   1.433       .  S
C280        C281   1.417       .  A
C281        C282   1.406       .  A
C281        H285   1.078   1_556  S
C282        N286   1.438       .  S
N284        H287   1.045       .  S
N284        H288   1.046       .  S
N286        H289   1.045       .  S
N286        H290   1.045       .  S
C295        C296   1.432       .  A
C295        C300   1.417       .  A
C296        C297   1.404       .  A
C296        N301   1.433       .  S
C297        C298   1.397       .  A
C297        H302   1.084       .  S
C298        C299   1.412       .  A
C298        C303   1.484       .  S
C299        C300   1.403       .  A
C299        N304   1.439       .  S
C300        H305   1.084   1_556  S
N301        H321   1.046       .  S
N301        H322   1.046       .  S
C303        C306   1.403       .  A
C303        C310   1.408       .  A
N304        H319   1.046   1_556  S
N304        H320   1.042       .  S
C306        C307   1.407       .  A
C306        H311   1.084       .  S
C307        C308   1.413       .  A
C307        N312   1.431       .  S
C308        C309   1.408       .  A
C309        C310   1.404       .  A
C309        H313   1.083       .  S
C310        N314   1.438       .  S
N312        H315   1.046       .  S
N312        H316   1.046       .  S
N314        H317   1.046       .  S
N314        H318   1.045       .  S
