geometry optimzed in LAMMPS
_audit_creation_date              2020-12-01 
_audit_creation_method            'lammps2cif' 
_symmetry_space_group_name_H-M    'P1' 
_symmetry_Int_Tables_number       1 
_symmetry_cell_setting            triclinic 
loop_ 
_symmetry_equiv_pos_as_xyz 
  x,y,z 
_cell_length_a                    29.2727079 
_cell_length_b                    29.27191910638186 
_cell_length_c                    39.15919439530154 
_cell_angle_alpha                 90.00126724371958 
_cell_angle_beta                  89.99851823862235 
_cell_angle_gamma                 119.97919899445175 
loop_ 
_atom_site_label 
_atom_site_type_symbol 
_atom_site_fract_x 
_atom_site_fract_y 
_atom_site_fract_z 
_atom_site_charge 
N1          N  0.57974798  0.77003566  0.30227370    -0.25800
N2          N  0.62466485  0.79120424  0.31944565    -0.33700
C3          C  0.61442540  0.78514978  0.35308728     0.02500
C4          C  0.56054719  0.75878519  0.35743888     0.08600
C5          C  0.53949836  0.74973245  0.32481685    -0.04500
H6          H  0.64409313  0.80050511  0.37290751     0.09200
H7          H  0.49822384  0.73145361  0.31802580     0.10400
Cu8        Cu  0.69840406  0.83278144  0.29747637     0.44200
Cu9        Cu  0.57678326  0.77616550  0.24919526     0.42000
Cu10       Cu  0.69792106  0.88858880  0.21700290     0.43900
N11         N  0.76676708  0.88310535  0.27166432    -0.33200
N12         N  0.76648789  0.90698618  0.24310842    -0.27400
C13         C  0.81645494  0.93877729  0.23293762    -0.03500
C14         C  0.84950085  0.93385511  0.25596023     0.08700
C15         C  0.81688649  0.89821081  0.28018456     0.02500
H16         H  0.82780178  0.96221202  0.20984268     0.10100
H17         H  0.82860278  0.88485597  0.30252943     0.09200
N18         N  0.63035101  0.84591981  0.18814969    -0.34600
N19         N  0.58821938  0.80201459  0.19848442    -0.26800
C20         C  0.55648972  0.77899943  0.17136198    -0.02100
C21         C  0.57944130  0.81069909  0.14305193     0.06600
C22         C  0.62595445  0.85273074  0.15462868     0.04600
H23         H  0.51986935  0.74173725  0.17210698     0.09800
H24         H  0.65617837  0.88396085  0.13934508     0.08600
N25         N  0.14468900  0.35725847  0.30315930    -0.25800
N26         N  0.10348377  0.31305432  0.31398733    -0.33700
C27         C  0.09770096  0.31634292  0.34781332     0.02500
C28         C  0.13771719  0.36452813  0.35903610     0.08600
C29         C  0.16706042  0.38950146  0.33017929    -0.04500
H30         H  0.06828282  0.28486853  0.36336092     0.09200
H31         H  0.20206269  0.42807047  0.32894298     0.10400
Cu32       Cu  0.06324934  0.24647787  0.28387117     0.44200
Cu33       Cu  0.16734628  0.36954043  0.25173306     0.42000
Cu34       Cu  0.12887266  0.24818260  0.20547682     0.43900
N35         N  0.04571253  0.17960297  0.25597840    -0.33200
N36         N  0.07300046  0.17963011  0.22906029    -0.27400
C37         C  0.05608210  0.12950077  0.21951744    -0.03500
C38         C  0.01571702  0.09671458  0.24121232     0.08700
C39         C  0.00999718  0.12960481  0.26390270     0.02500
H40         H  0.07147672  0.11792839  0.19815569     0.10100
H41         H  0.98340053  0.11798520  0.28547917     0.09200
N42         N  0.16566419  0.32187092  0.18281383    -0.34600
N43         N  0.17717351  0.36606550  0.19897053    -0.26800
C44         C  0.19280456  0.40511578  0.17573855    -0.02100
C45         C  0.19164655  0.38436792  0.14373994     0.06600
C46         C  0.17442702  0.33167753  0.14918719     0.04600
H47         H  0.20321959  0.44529025  0.18160987     0.09800
H48         H  0.16611969  0.30203891  0.12994593     0.08600
N49         N  0.17064149  0.81715727  0.19724371    -0.25800
N50         N  0.16193200  0.85332908  0.18334729    -0.33700
C51         C  0.17416281  0.85780426  0.14988112     0.02500
C52         C  0.19076664  0.82235021  0.14211082     0.08600
C53         C  0.18758880  0.79687357  0.17262862    -0.04500
H54         H  0.16793937  0.88239964  0.13207371     0.09200
H55         H  0.19567322  0.76498011  0.17643886     0.10400
Cu56       Cu  0.12400230  0.88749807  0.20864229     0.44200
Cu57       Cu  0.15601750  0.79568255  0.24901141     0.42000
Cu58       Cu  0.06226537  0.82615577  0.28857784     0.43900
N59         N  0.07003667  0.90200745  0.23389178    -0.33200
N60         N  0.04440891  0.87643413  0.26172239    -0.27400
C61         C  0.00954650  0.89177390  0.27027554    -0.03500
C62         C  0.01414233  0.92936818  0.24700904     0.08700
C63         C  0.05296443  0.93512081  0.22441065     0.02500
H64         H  0.98413909  0.87799077  0.29245669     0.10100
H65         H  0.06715084  0.96083134  0.20238422     0.09200
N66         N  0.09846507  0.79085232  0.31450165    -0.34600
N67         N  0.13486823  0.78222624  0.30088571    -0.26800
C68         C  0.15524530  0.76581917  0.32579012    -0.02100
C69         C  0.12957584  0.76298616  0.35618150     0.06600
C70         C  0.09399907  0.77922289  0.34804044     0.04600
H71         H  0.18700258  0.75746874  0.32219365     0.09800
H72         H  0.06885224  0.78506878  0.36558285     0.08600
C73         C  0.90708037  0.96132588  0.25440148     0.81700
N74         N  0.93340735  0.93404461  0.25518796    -0.76600
C75         C  0.98558780  0.95874428  0.24710723     0.84200
N76         N  0.01161353  0.01111291  0.23962085    -0.76500
C77         C  0.98613129  0.03908298  0.24166124     0.84200
N78         N  0.93377097  0.01389541  0.24837566    -0.78300
C79         C  0.81706752  0.26601634  0.94156523     0.81700
N80         N  0.76992694  0.23112323  0.95607607    -0.76600
C81         C  0.73336809  0.18889549  0.93782935     0.84200
N82         N  0.74371994  0.18234588  0.90492961    -0.76500
C83         C  0.79083875  0.21651934  0.89045640     0.84200
N84         N  0.82768581  0.25786892  0.90901095    -0.78300
C85         C  0.25350159  0.44114422  0.06044239     0.81700
N86         N  0.24509003  0.41967079  0.09216194    -0.76600
C87         C  0.20198911  0.41079650  0.11042846     0.84200
N88         N  0.16623107  0.42204470  0.09643140    -0.76500
C89         C  0.17351237  0.44211794  0.06428272     0.84200
N90         N  0.21750312  0.45214039  0.04640479    -0.78300
C91         C  0.73473616  0.56358150  0.94357408     0.81700
N92         N  0.77215758  0.55900954  0.96160068    -0.76600
C93         C  0.81820836  0.56951349  0.94619312     0.84200
N94         N  0.82692247  0.58542046  0.91309396    -0.76500
C95         C  0.78913197  0.58834378  0.89472506     0.84200
N96         N  0.74291793  0.57700669  0.90996136    -0.78300
O97         O  0.92382069  0.42067350  0.01560547    -0.71500
O98         O  0.02856690  0.56976779  0.04689623    -0.72400
O99         O  0.92506203  0.51892649  0.01655924    -0.61100
O100        O  0.02711651  0.47175302  0.04666653    -0.69500
O101        O  0.06423434  0.49044818  0.99531773    -0.69000
O102        O  0.96164351  0.53742410  0.96505527    -0.60300
O103        O  0.06499706  0.58800476  0.99535644    -0.72800
O104        O  0.96111273  0.43968024  0.96433986    -0.71600
Cu105      Cu  0.97484197  0.49459615  0.03322710     1.04600
Cu106      Cu  0.01421280  0.51447262  0.97823340     1.04300
C107        C  0.92577941  0.40714982  0.98478885     0.94700
C108        C  0.06362336  0.60194110  0.02607778     0.93900
C109        C  0.92699236  0.53507322  0.98600418     0.86000
C110        C  0.06229811  0.47470971  0.02602367     0.92300
O111        O  0.46439666  0.44452576  0.96107441    -0.71500
O112        O  0.50948469  0.59342265  0.98939822    -0.72400
O113        O  0.56189166  0.54065301  0.96106975    -0.61100
O114        O  0.41226494  0.49652768  0.98947690    -0.69500
O115        O  0.42949816  0.47895330  0.04151487    -0.69000
O116        O  0.57895832  0.52359573  0.01328004    -0.60300
O117        O  0.52626044  0.57617928  0.04166375    -0.72800
O118        O  0.48167103  0.42697770  0.01313593    -0.71600
Cu119      Cu  0.48653273  0.51949317  0.97344051     1.04600
Cu120      Cu  0.50477030  0.50095580  0.02923821     1.04300
C121        C  0.46653519  0.41268577  0.98242998     0.94700
C122        C  0.52357362  0.60770351  0.02023054     0.93900
C123        C  0.59336332  0.53765954  0.98242519     0.86000
C124        C  0.39763310  0.48102186  0.02011199     0.92300
C125        C  0.17410050  0.74823295  0.06196696     0.81700
N126        N  0.21658158  0.78376922  0.04343834    -0.76600
C127        C  0.25098033  0.83192393  0.05695310     0.84200
N128        N  0.24223161  0.84448851  0.08883494    -0.76500
C129        C  0.20067821  0.80865854  0.10772268     0.84200
N130        N  0.16694446  0.76057639  0.09423172    -0.78300
C131        C  0.43109191  0.27092618  0.94109597     0.81700
N132        N  0.44024072  0.23407916  0.95573730    -0.76600
C133        C  0.43023638  0.19008919  0.93792499     0.84200
N134        N  0.41143622  0.18332649  0.90548654    -0.76500
C135        C  0.40271200  0.22029877  0.89074842     0.84200
N136        N  0.41196141  0.26367411  0.90877593    -0.78300
C137        C  0.54859405  0.82947258  0.05447565     0.81700
N138        N  0.56015987  0.83735734  0.08827478    -0.76600
C139        C  0.56247752  0.79981577  0.10729987     0.84200
N140        N  0.55492129  0.75484704  0.09214887    -0.76500
C141        C  0.54561360  0.74757343  0.05804420     0.84200
N142        N  0.54171454  0.78463750  0.03920615    -0.78300
O143        O  0.47689121  0.07858582  0.00571745    -0.71500
O144        O  0.52180897  0.97415474  0.03405000    -0.72400
O145        O  0.57392875  0.07844419  0.00533719    -0.61100
O146        O  0.42483589  0.97439722  0.03486685    -0.69500
O147        O  0.40627695  0.93896611  0.98304645    -0.69000
O148        O  0.55608290  0.04369424  0.95330775    -0.60300
O149        O  0.50378372  0.93914363  0.98206703    -0.72800
O150        O  0.45872754  0.04342944  0.95377695    -0.71600
Cu151      Cu  0.49996107  0.02756342  0.02178139     1.04600
Cu152      Cu  0.48058503  0.99010591  0.96620671     1.04300
C153        C  0.46160373  0.07785796  0.97505753     0.94700
C154        C  0.51912479  0.93987064  0.01269734     0.93900
C155        C  0.58815712  0.07791150  0.97456611     0.86000
C156        C  0.39245788  0.93989212  0.01393637     0.92300
N157        N  0.35698040  0.19750252  0.80255448    -0.25800
N158        N  0.31193069  0.17829554  0.81944670    -0.33700
C159        C  0.32181904  0.18492379  0.85311926     0.02500
C160        C  0.37557208  0.20947193  0.85778914     0.08600
C161        C  0.39692235  0.21690359  0.82532374    -0.04500
H162        H  0.29191687  0.17103392  0.87277935     0.09200
H163        H  0.43814583  0.23359783  0.81880627     0.10400
Cu164      Cu  0.23812659  0.13811941  0.79730566     0.44200
Cu165      Cu  0.36056877  0.19069493  0.74955800     0.42000
Cu166      Cu  0.23771039  0.08223508  0.71668208     0.43900
N167        N  0.16942348  0.08842857  0.77149569    -0.33200
N168        N  0.16946187  0.06472696  0.74279913    -0.27400
C169        C  0.11944560  0.03301779  0.73273477    -0.03500
C170        C  0.08655131  0.03771561  0.75598419     0.08700
C171        C  0.11933657  0.07319055  0.78024743     0.02500
H172        H  0.10793861  0.00948000  0.70968257     0.10100
H173        H  0.10774923  0.08610125  0.80286076     0.09200
N174        N  0.30567364  0.12312857  0.68799772    -0.34600
N175        N  0.34887987  0.16571817  0.69864224    -0.26800
C176        C  0.38109365  0.18820531  0.67164273    -0.02100
C177        C  0.35722742  0.15748115  0.64308963     0.06600
C178        C  0.30973043  0.11661113  0.65439773     0.04600
H179        H  0.41861784  0.22452052  0.67262394     0.09800
H180        H  0.27875713  0.08649735  0.63890597     0.08600
N181        N  0.76329638  0.15055910  0.69732860    -0.25800
N182        N  0.77212437  0.11442704  0.68349813    -0.33700
C183        C  0.75963702  0.10966136  0.65006373     0.02500
C184        C  0.74269624  0.14484984  0.64225765     0.08600
C185        C  0.74601259  0.17051580  0.67271553    -0.04500
H186        H  0.76596895  0.08511145  0.63228014     0.09200
H187        H  0.73787551  0.20238541  0.67647158     0.09600
Cu188      Cu  0.81042925  0.08067478  0.70887862     0.44200
Cu189      Cu  0.77818007  0.17246910  0.74898619     0.42000
Cu190      Cu  0.87050306  0.14088901  0.78951799     0.43900
N191        N  0.86411213  0.06606925  0.73447247    -0.33200
N192        N  0.88899101  0.09112612  0.76262543    -0.27400
C193        C  0.92399993  0.07603568  0.77128733    -0.03500
C194        C  0.92030777  0.03914936  0.74774750     0.08700
C195        C  0.88184162  0.03353023  0.72487898     0.02500
H196        H  0.94902709  0.08963237  0.79364829     0.10100
H197        H  0.86845017  0.00842023  0.70255042     0.09200
N198        N  0.83463196  0.17695534  0.81489590    -0.34600
N199        N  0.79885929  0.18616487  0.80088665    -0.26800
C200        C  0.77855602  0.20315697  0.82547755    -0.02100
C201        C  0.80361576  0.20572559  0.85607506     0.06600
C202        C  0.83874473  0.18874040  0.84839325     0.04600
H203        H  0.74718610  0.21198196  0.82153736     0.09800
H204        H  0.86330521  0.18249491  0.86621882     0.08600
C205        C  0.94964372  0.01055982  0.74769728     0.81700
N206        N  0.92434680  0.95824214  0.74007478    -0.76600
C207        C  0.95058645  0.93099801  0.74198190     0.84200
N208        N  0.00294592  0.95688774  0.74871841    -0.76500
C209        C  0.02892791  0.00943434  0.75484335     0.84200
N210        N  0.00186602  0.03597565  0.75572889    -0.78300
N211        N  0.79395135  0.61376187  0.80310908    -0.25800
N212        N  0.83529932  0.65780923  0.81397644    -0.33700
C213        C  0.84043198  0.65473976  0.84791284     0.02500
C214        C  0.79978293  0.60689154  0.85915212     0.08600
C215        C  0.77083808  0.58187018  0.83017709    -0.04500
H216        H  0.86992182  0.68611273  0.86348752     0.09200
H217        H  0.73566098  0.54344352  0.82887887     0.10400
Cu218      Cu  0.87633708  0.72391700  0.78352312     0.44200
Cu219      Cu  0.77195147  0.60124190  0.75156187     0.42000
Cu220      Cu  0.80914074  0.72175532  0.70522093     0.43900
N221        N  0.89309942  0.79049301  0.75548549    -0.33200
N222        N  0.86521610  0.79029378  0.72884586    -0.27400
C223        C  0.88138157  0.84039457  0.71960325    -0.03500
C224        C  0.92187364  0.87335268  0.74116349     0.08700
C225        C  0.92847178  0.84058457  0.76346805     0.02500
H226        H  0.86526857  0.85185030  0.69859133     0.10100
H227        H  0.95526615  0.85232988  0.78494291     0.09200
N228        N  0.77160465  0.64789295  0.68267755    -0.34600
N229        N  0.76086098  0.60396706  0.69889054    -0.26800
C230        C  0.74464748  0.56464140  0.67581665    -0.02100
C231        C  0.74442086  0.58484206  0.64385586     0.06600
C232        C  0.76160713  0.63758940  0.64916832     0.04600
H233        H  0.73473720  0.52463008  0.68175644     0.09800
H234        H  0.76919905  0.66695023  0.62986254     0.08600
C235        C  0.11562527  0.70252012  0.44175459     0.81700
N236        N  0.10496443  0.71104335  0.40928557    -0.76600
C237        C  0.14197685  0.75232611  0.39074144     0.84200
N238        N  0.18931619  0.78605225  0.40514324    -0.76500
C239        C  0.19972347  0.77921852  0.43797465     0.84200
N240        N  0.16299666  0.73703225  0.45619364    -0.78300
C241        C  0.76019750  0.21900753  0.56204364     0.81700
N242        N  0.71789354  0.18349594  0.54334510    -0.76600
C243        C  0.68322374  0.13535804  0.55680520     0.84200
N244        N  0.69158537  0.12278772  0.58879530    -0.76500
C245        C  0.73295930  0.15859135  0.60783308     0.84200
N246        N  0.76689432  0.20664748  0.59440125    -0.78300
C247        C  0.38710690  0.13834678  0.55438646     0.81700
N248        N  0.39413323  0.18326812  0.53915666    -0.76600
C249        C  0.39084419  0.22059978  0.55809708     0.84200
N250        N  0.38195566  0.21346352  0.59225017    -0.76500
C251        C  0.37432066  0.16844115  0.60736899     0.84200
N252        N  0.37601162  0.13065293  0.58824640    -0.78300
C253        C  0.50348007  0.69643417  0.44027078     0.81700
N254        N  0.52303864  0.70395086  0.40805383    -0.76600
C255        C  0.53283839  0.74764159  0.39019814     0.84200
N256        N  0.52412156  0.78459257  0.40498268    -0.76500
C257        C  0.50463710  0.77743214  0.43725306     0.84200
N258        N  0.49421202  0.73319853  0.45491946    -0.78300
O259        O  0.52804591  0.02815231  0.48254839    -0.71500
O260        O  0.37793101  0.92336285  0.45295125    -0.72400
O261        O  0.43049271  0.02794410  0.48171403    -0.61100
O262        O  0.47540267  0.92365925  0.45318542    -0.69500
O263        O  0.45740656  0.88845644  0.50511094    -0.69000
O264        O  0.41262667  0.99292429  0.53369400    -0.60300
O265        O  0.36029231  0.88860980  0.50497181    -0.72800
O266        O  0.50960414  0.99264704  0.53433982    -0.71600
Cu267      Cu  0.45359204  0.97697004  0.46575288     1.04600
Cu268      Cu  0.43439205  0.93947897  0.52130954     1.04300
C269        C  0.54194893  0.02722197  0.51342603     0.94700
C270        C  0.34587956  0.88919124  0.47425427     0.93900
C271        C  0.41528868  0.02724149  0.51237601     0.86000
C272        C  0.47263167  0.88923339  0.47442562     0.92300
C273        C  0.20145677  0.40611386  0.44381632     0.81700
N274        N  0.19384428  0.39365580  0.41006723    -0.76600
C275        C  0.14799842  0.38294025  0.39461088     0.84200
N276        N  0.10992682  0.38544343  0.41292067    -0.76500
C277        C  0.11807762  0.40042930  0.44620230     0.84200
N278        N  0.16380089  0.41032292  0.46183308    -0.78300
C279        C  0.68190785  0.52750903  0.56069692     0.81700
N280        N  0.71724311  0.51537195  0.54695067    -0.76600
C281        C  0.76094369  0.52483377  0.56492242     0.84200
N282        N  0.76859439  0.54545291  0.59692761    -0.76500
C283        C  0.73359778  0.55801846  0.61062724     0.84200
N284        N  0.69075591  0.54969710  0.59223471    -0.78300
O285        O  0.01013672  0.54715457  0.51560829    -0.71500
O286        O  0.90646941  0.39758187  0.54709329    -0.72400
O287        O  0.01000459  0.44937633  0.51659832    -0.61100
O288        O  0.90707895  0.49513739  0.54694676    -0.69500
O289        O  0.86964217  0.47606944  0.49569249    -0.69000
O290        O  0.97329607  0.43056130  0.46513656    -0.60300
O291        O  0.86994091  0.37909107  0.49558933    -0.72800
O292        O  0.97257989  0.52777254  0.46443439    -0.71600
Cu293      Cu  0.95974034  0.47300083  0.53334937     1.04600
Cu294      Cu  0.92014981  0.45276700  0.47842913     1.04300
C295        C  0.00781500  0.56059409  0.48481672     0.94700
C296        C  0.87142165  0.36524876  0.52631585     0.93900
C297        C  0.00818302  0.43330622  0.48603932     0.86000
C298        C  0.87163489  0.49179415  0.52641171     0.92300
O299        O  0.35670200  0.44422738  0.51323782    -0.71500
O300        O  0.50613384  0.48937769  0.54122719    -0.72400
O301        O  0.45370023  0.54090328  0.51266729    -0.61100
O302        O  0.40969228  0.39192180  0.54160322    -0.69500
O303        O  0.42627403  0.37446781  0.48934498    -0.69000
O304        O  0.47091813  0.52310312  0.46065988    -0.60300
O305        O  0.52340017  0.47154885  0.48926680    -0.72800
O306        O  0.37350492  0.42698671  0.46100063    -0.71600
Cu307      Cu  0.43089071  0.46707062  0.52901390     1.04600
Cu308      Cu  0.44899708  0.44828785  0.47324614     1.04300
C309        C  0.34217915  0.43014389  0.48241816     0.94700
C310        C  0.53803093  0.48731022  0.51987428     0.93900
C311        C  0.46868261  0.55500540  0.48191067     0.86000
C312        C  0.41238961  0.36033151  0.52022081     0.92300
C313        C  0.79966022  0.51384026  0.54999646    -0.11800
C314        C  0.83266425  0.50460156  0.53849052    -0.13300
C315        C  0.59080483  0.50229431  0.53094772    -0.11800
C316        C  0.63343039  0.51413585  0.54303359    -0.13300
C317        C  0.07981581  0.40990570  0.46347985    -0.11800
C318        C  0.04679532  0.41938896  0.47473473    -0.13300
C319        C  0.24918349  0.41362802  0.46016303    -0.11800
C320        C  0.29064545  0.41981110  0.47126201    -0.13300
C321        C  0.49457056  0.81659985  0.45232236    -0.11800
C322        C  0.48553113  0.84999578  0.46325150    -0.13300
C323        C  0.48203183  0.60702684  0.47053106    -0.11800
C324        C  0.49191607  0.64889850  0.45827166    -0.13300
C325        C  0.39631717  0.26773758  0.54236033    -0.11800
C326        C  0.40188250  0.30895227  0.53145417    -0.13300
C327        C  0.40265937  0.06665685  0.52356195    -0.11800
C328        C  0.39462678  0.10006716  0.53568977    -0.13300
C329        C  0.79868743  0.26969303  0.54785323    -0.11800
C330        C  0.83223916  0.31288887  0.53776602    -0.13300
C331        C  0.59413013  0.06629759  0.52542936    -0.11800
C332        C  0.63584266  0.09849989  0.53828055    -0.13300
C333        C  0.29318560  0.85011252  0.46332326    -0.11800
C334        C  0.24996226  0.81703530  0.45299745    -0.13300
C335        C  0.07802859  0.65477158  0.45965759    -0.11800
C336        C  0.04603798  0.61283868  0.47237697    -0.13300
C337        C  0.53198693  0.90058806  0.02380733    -0.11800
C338        C  0.54042611  0.86742380  0.03589077    -0.13300
C339        C  0.44882849  0.11720328  0.96394311    -0.11800
C340        C  0.44000435  0.15074597  0.95302365    -0.13300
C341        C  0.34029829  0.90090995  0.02590119    -0.11800
C342        C  0.29851096  0.86875663  0.03863316    -0.13300
C343        C  0.53432545  0.65917623  0.03137580    -0.11800
C344        C  0.54005114  0.70044059  0.04227939    -0.13300
C345        C  0.45287378  0.36049778  0.97123722    -0.11800
C346        C  0.44275549  0.31848859  0.95909602    -0.13300
C347        C  0.10278037  0.65427873  0.03749028    -0.11800
C348        C  0.13602471  0.69749722  0.04769455    -0.13300
C349        C  0.85611509  0.55949360  0.96343860    -0.11800
C350        C  0.88877802  0.54953546  0.97473129    -0.13300
C351        C  0.68660529  0.55521780  0.95982604    -0.11800
C352        C  0.64498822  0.54837668  0.97112689    -0.13300
C353        C  0.30210774  0.45468255  0.04287339    -0.11800
C354        C  0.34486630  0.46633663  0.03108013    -0.13300
C355        C  0.10117216  0.46161625  0.03795673    -0.11800
C356        C  0.13438988  0.45253337  0.04930788    -0.13300
C357        C  0.85472571  0.31345318  0.95963300    -0.11800
C358        C  0.88703276  0.35515469  0.97239710    -0.13300
C359        C  0.64060501  0.11719512  0.96348339    -0.11800
C360        C  0.68352073  0.15058459  0.95297989    -0.13300
loop_ 
_geom_bond_atom_site_label_1 
_geom_bond_atom_site_label_2 
_geom_bond_distance 
_geom_bond_site_symmetry_2 
_ccdc_geom_bond_type 
N1            N2   1.323       .  A
N1            C5   1.349       .  A
N1           Cu9   2.092       .  S
N2            C3   1.343       .  A
N2           Cu8   2.063       .  S
C3            C4   1.377       .  A
C3            H6   1.081       .  S
C4            C5   1.385       .  A
C4          C255   1.465       .  S
C5            H7   1.082       .  S
Cu8          N11   2.062       .  S
Cu9          N19   2.092       .  S
Cu10         N12   2.070       .  S
Cu10         N18   2.069       .  S
N11          N12   1.321       .  A
N11          C15   1.346       .  A
N12          C13   1.343       .  A
C13          C14   1.382       .  A
C13          H16   1.082       .  S
C14          C15   1.380       .  A
C14          C73   1.462       .  S
C15          H17   1.082       .  S
N18          N19   1.324       .  A
N18          C22   1.344       .  A
N19          C20   1.349       .  A
C20          C21   1.385       .  A
C20          H23   1.082       .  S
C21          C22   1.378       .  A
C21         C139   1.466       .  S
C22          H24   1.081       .  S
N25          N26   1.323       .  A
N25          C29   1.350       .  A
N25         Cu33   2.094       .  S
N26          C27   1.345       .  A
N26         Cu32   2.069       .  S
C27          C28   1.380       .  A
C27          H30   1.081       .  S
C28          C29   1.386       .  A
C28         C275   1.470       .  S
C29          H31   1.082       .  S
Cu32         N35   2.070       .  S
Cu33         N43   2.096       .  S
Cu34         N36   2.068       .  S
Cu34         N42   2.068       .  S
N35          N36   1.322       .  A
N35          C39   1.342       .  A
N36          C37   1.346       .  A
C37          C38   1.380       .  A
C37          H40   1.082       .  S
C38          C39   1.380       .  A
C38          C77   1.462   1_455  S
C39          H41   1.082   1_455  S
N42          N43   1.324       .  A
N42          C46   1.345       .  A
N43          C44   1.349       .  A
C44          C45   1.385       .  A
C44          H47   1.082       .  S
C45          C46   1.379       .  A
C45          C87   1.469       .  S
C46          H48   1.081       .  S
N49          N50   1.324       .  A
N49          C53   1.350       .  A
N49         Cu57   2.102       .  S
N50          C51   1.348       .  A
N50         Cu56   2.079       .  S
C51          C52   1.382       .  A
C51          H54   1.081       .  S
C52          C53   1.387       .  A
C52         C129   1.475       .  S
C53          H55   1.082       .  S
Cu56         N59   2.079       .  S
Cu57         N67   2.103       .  S
Cu58         N60   2.077       .  S
Cu58         N66   2.077       .  S
N59          N60   1.323       .  A
N59          C63   1.346       .  A
N60          C61   1.347       .  A
C61          C62   1.382       .  A
C61          H64   1.082   1_455  S
C62          C63   1.383       .  A
C62          C75   1.468   1_455  S
C63          H65   1.082       .  S
N66          N67   1.324       .  A
N66          C70   1.347       .  A
N67          C68   1.351       .  A
C68          C69   1.388       .  A
C68          H71   1.082       .  S
C69          C70   1.381       .  A
C69         C237   1.474       .  S
C70          H72   1.081       .  S
C73          N74   1.359       .  A
C73          N78   1.354   1_565  A
N74          C75   1.361       .  A
C75          N76   1.360   1_665  A
N76          C77   1.358   1_455  A
C77          N78   1.354       .  A
C79          N80   1.364       .  A
C79          N84   1.361       .  A
C79         C357   1.454       .  S
N80          C81   1.364       .  A
C81          N82   1.359       .  A
C81         C360   1.450       .  S
N82          C83   1.358       .  A
C83          N84   1.361       .  A
C83         C201   1.473       .  S
C85          N86   1.358       .  A
C85          N90   1.362       .  A
C85         C353   1.446       .  S
N86          C87   1.358       .  A
C87          N88   1.360       .  A
N88          C89   1.360       .  A
C89          N90   1.363       .  A
C89         C356   1.448       .  S
C91          N92   1.365       .  A
C91          N96   1.360       .  A
C91         C351   1.451       .  S
N92          C93   1.364       .  A
C93          N94   1.358       .  A
C93         C349   1.449       .  S
N94          C95   1.358       .  A
C95          N96   1.359       .  A
C95         C214   1.471       .  S
O97        Cu105   2.039       .  S
O97         C107   1.280   1_554  A
O98        Cu105   2.036   1_455  S
O98         C108   1.280       .  A
O99        Cu105   2.023       .  S
O99         C109   1.277   1_554  A
O100       Cu105   2.022   1_455  S
O100        C110   1.278       .  A
O101       Cu106   2.029       .  S
O101        C110   1.279   1_556  A
O102       Cu106   2.030   1_655  S
O102        C109   1.279       .  A
O103       Cu106   2.024       .  S
O103        C108   1.277   1_556  A
O104       Cu106   2.026   1_655  S
O104        C107   1.278       .  A
Cu105      Cu106   2.374   1_654  S
C107        C358   1.454       .  S
C108        C347   1.451       .  S
C109        C350   1.449       .  S
C110        C355   1.448       .  S
O111       Cu119   2.012       .  S
O111        C121   1.277       .  A
O112       Cu119   2.018       .  S
O112        C122   1.277   1_556  A
O113       Cu119   2.030       .  S
O113        C123   1.279       .  A
O114       Cu119   2.028       .  S
O114        C124   1.278   1_556  A
O115       Cu120   2.021       .  S
O115        C124   1.278       .  A
O116       Cu120   2.027       .  S
O116        C123   1.278   1_554  A
O117       Cu120   2.024       .  S
O117        C122   1.279       .  A
O118       Cu120   2.020       .  S
O118        C121   1.277   1_554  A
Cu119      Cu120   2.376   1_556  S
C121        C345   1.441       .  S
C122        C343   1.444       .  S
C123        C352   1.451       .  S
C124        C354   1.446       .  S
C125        N126   1.365       .  A
C125        N130   1.359       .  A
C125        C348   1.451       .  S
N126        C127   1.365       .  A
C127        N128   1.361       .  A
C127        C342   1.454       .  S
N128        C129   1.361       .  A
C129        N130   1.359       .  A
C131        N132   1.361       .  A
C131        N136   1.357       .  A
C131        C346   1.441       .  S
N132        C133   1.361       .  A
C133        N134   1.359       .  A
C133        C340   1.445       .  S
N134        C135   1.359       .  A
C135        N136   1.357       .  A
C135        C160   1.465       .  S
C137        N138   1.357       .  A
C137        N142   1.362       .  A
C137        C338   1.444       .  S
N138        C139   1.357       .  A
C139        N140   1.357       .  A
N140        C141   1.358       .  A
C141        N142   1.363       .  A
C141        C344   1.444       .  S
O143       Cu151   2.022       .  S
O143        C153   1.278   1_554  A
O144       Cu151   2.021   1_565  S
O144        C154   1.278       .  A
O145       Cu151   2.024       .  S
O145        C155   1.278   1_554  A
O146       Cu151   2.025   1_565  S
O146        C156   1.278       .  A
O147       Cu152   2.038       .  S
O147        C156   1.280   1_556  A
O148       Cu152   2.034   1_545  S
O148        C155   1.280       .  A
O149       Cu152   2.021       .  S
O149        C154   1.277   1_556  A
O150       Cu152   2.020   1_545  S
O150        C153   1.278       .  A
Cu151      Cu152   2.375   1_544  S
C153        C339   1.444       .  S
C154        C337   1.444       .  S
C155        C359   1.450       .  S
C156        C341   1.453       .  S
N157        N158   1.324       .  A
N157        C161   1.349       .  A
N157       Cu165   2.092       .  S
N158        C159   1.343       .  A
N158       Cu164   2.065       .  S
C159        C160   1.377       .  A
C159        H162   1.081       .  S
C160        C161   1.385       .  A
C161        H163   1.082       .  S
Cu164       N167   2.064       .  S
Cu165       N175   2.092       .  S
Cu166       N168   2.068       .  S
Cu166       N174   2.067       .  S
N167        N168   1.321       .  A
N167        C171   1.346       .  A
N168        C169   1.343       .  A
C169        C170   1.381       .  A
C169        H172   1.082       .  S
C170        C171   1.381       .  A
C170        C209   1.462       .  S
C171        H173   1.082       .  S
N174        N175   1.324       .  A
N174        C178   1.343       .  A
N175        C176   1.349       .  A
C176        C177   1.385       .  A
C176        H179   1.082       .  S
C177        C178   1.378       .  A
C177        C251   1.466       .  S
C178        H180   1.081       .  S
N181        N182   1.324       .  A
N181        C185   1.350       .  A
N181       Cu189   2.101       .  S
N182        C183   1.348       .  A
N182       Cu188   2.080       .  S
C183        C184   1.382       .  A
C183        H186   1.081       .  S
C184        C185   1.387       .  A
C184        C245   1.475       .  S
C185        H187   1.082       .  S
Cu188       N191   2.080       .  S
Cu189       N199   2.101       .  S
Cu190       N192   2.076       .  S
Cu190       N198   2.077       .  S
N191        N192   1.323       .  A
N191        C195   1.346       .  A
N192        C193   1.346       .  A
C193        C194   1.382       .  A
C193        H196   1.082       .  S
C194        C195   1.383       .  A
C194        C205   1.468       .  S
C195        H197   1.082       .  S
N198        N199   1.324       .  A
N198        C202   1.346       .  A
N199        C200   1.350       .  A
C200        C201   1.387       .  A
C200        H203   1.082       .  S
C201        C202   1.381       .  A
C202        H204   1.081       .  S
C205        N206   1.360   1_545  A
C205        N210   1.361   1_655  A
N206        C207   1.358       .  A
C207        N208   1.354   1_655  A
C207        C224   1.462       .  S
N208        C209   1.354   1_565  A
C209        N210   1.359       .  A
N211        N212   1.322       .  A
N211        C215   1.350       .  A
N211       Cu219   2.095       .  S
N212        C213   1.345       .  A
N212       Cu218   2.070       .  S
C213        C214   1.380       .  A
C213        H216   1.081       .  S
C214        C215   1.386       .  A
C215        H217   1.082       .  S
Cu218       N221   2.071       .  S
Cu219       N229   2.096       .  S
Cu220       N222   2.070       .  S
Cu220       N228   2.071       .  S
N221        N222   1.323       .  A
N221        C225   1.343       .  A
N222        C223   1.346       .  A
C223        C224   1.380       .  A
C223        H226   1.082       .  S
C224        C225   1.380       .  A
C225        H227   1.082       .  S
N228        N229   1.323       .  A
N228        C232   1.345       .  A
N229        C230   1.349       .  A
C230        C231   1.386       .  A
C230        H233   1.082       .  S
C231        C232   1.380       .  A
C231        C283   1.470       .  S
C232        H234   1.081       .  S
C235        N236   1.362       .  A
C235        N240   1.365       .  A
C235        C335   1.456       .  S
N236        C237   1.361       .  A
C237        N238   1.359       .  A
N238        C239   1.359       .  A
C239        N240   1.365       .  A
C239        C334   1.452       .  S
C241        N242   1.365       .  A
C241        N246   1.359       .  A
C241        C329   1.452       .  S
N242        C243   1.365       .  A
C243        N244   1.362       .  A
C243        C332   1.456       .  S
N244        C245   1.361       .  A
C245        N246   1.359       .  A
C247        N248   1.363       .  A
C247        N252   1.357       .  A
C247        C328   1.444       .  S
N248        C249   1.363       .  A
C249        N250   1.359       .  A
C249        C325   1.445       .  S
N250        C251   1.358       .  A
C251        N252   1.357       .  A
C253        N254   1.357       .  A
C253        N258   1.361       .  A
C253        C324   1.441       .  S
N254        C255   1.357       .  A
C255        N256   1.359       .  A
N256        C257   1.359       .  A
C257        N258   1.361       .  A
C257        C321   1.445       .  S
O259       Cu267   2.041   1_545  S
O259        C269   1.280       .  A
O260       Cu267   2.036       .  S
O260        C270   1.280       .  A
O261       Cu267   2.021   1_545  S
O261        C271   1.277       .  A
O262       Cu267   2.020       .  S
O262        C272   1.278       .  A
O263       Cu268   2.023       .  S
O263        C272   1.278       .  A
O264       Cu268   2.021       .  S
O264        C271   1.278   1_565  A
O265       Cu268   2.026       .  S
O265        C270   1.278       .  A
O266       Cu268   2.026       .  S
O266        C269   1.278   1_565  A
Cu267      Cu268   2.374       .  S
C269        C331   1.455       .  S
C270        C333   1.452       .  S
C271        C327   1.444       .  S
C272        C322   1.445       .  S
C273        N274   1.359       .  A
C273        N278   1.365       .  A
C273        C319   1.450       .  S
N274        C275   1.358       .  A
C275        N276   1.358       .  A
N276        C277   1.358       .  A
C277        N278   1.365       .  A
C277        C317   1.449       .  S
C279        N280   1.361       .  A
C279        N284   1.359       .  A
C279        C316   1.446       .  S
N280        C281   1.362       .  A
C281        N282   1.360       .  A
C281        C313   1.447       .  S
N282        C283   1.360       .  A
C283        N284   1.359       .  A
O285       Cu293   2.042   1_455  S
O285        C295   1.281       .  A
O286       Cu293   2.038       .  S
O286        C296   1.281       .  A
O287       Cu293   2.022   1_455  S
O287        C297   1.277       .  A
O288       Cu293   2.019       .  S
O288        C298   1.277       .  A
O289       Cu294   2.029       .  S
O289        C298   1.279       .  A
O290       Cu294   2.031       .  S
O290        C297   1.280   1_655  A
O291       Cu294   2.024       .  S
O291        C296   1.277       .  A
O292       Cu294   2.027       .  S
O292        C295   1.278   1_655  A
Cu293      Cu294   2.373       .  S
C295        C336   1.455       .  S
C296        C330   1.452       .  S
C297        C318   1.449       .  S
C298        C314   1.447       .  S
O299       Cu307   2.023       .  S
O299        C309   1.278       .  A
O300       Cu307   2.017       .  S
O300        C310   1.277       .  A
O301       Cu307   2.021       .  S
O301        C311   1.278       .  A
O302       Cu307   2.026       .  S
O302        C312   1.279       .  A
O303       Cu308   2.018       .  S
O303        C312   1.277       .  A
O304       Cu308   2.012       .  S
O304        C311   1.277       .  A
O305       Cu308   2.029       .  S
O305        C310   1.279       .  A
O306       Cu308   2.031       .  S
O306        C309   1.280       .  A
Cu307      Cu308   2.376       .  S
C309        C320   1.450       .  S
C310        C315   1.446       .  S
C311        C323   1.441       .  S
C312        C326   1.445       .  S
C313        C314   1.213       .  T
C315        C316   1.212       .  T
C317        C318   1.214       .  T
C319        C320   1.215       .  T
C321        C322   1.211       .  T
C323        C324   1.209       .  T
C325        C326   1.212       .  T
C327        C328   1.211       .  T
C329        C330   1.216       .  T
C331        C332   1.218       .  T
C333        C334   1.216       .  T
C335        C336   1.218       .  T
C337        C338   1.211       .  T
C339        C340   1.211       .  T
C341        C342   1.217       .  T
C343        C344   1.211       .  T
C345        C346   1.209       .  T
C347        C348   1.215       .  T
C349        C350   1.214       .  T
C351        C352   1.215       .  T
C353        C354   1.212       .  T
C355        C356   1.213       .  T
C357        C358   1.217       .  T
C359        C360   1.215       .  T
