geometry optimzed in LAMMPS
_audit_creation_date              2020-12-01 
_audit_creation_method            'lammps2cif' 
_symmetry_space_group_name_H-M    'P1' 
_symmetry_Int_Tables_number       1 
_symmetry_cell_setting            triclinic 
loop_ 
_symmetry_equiv_pos_as_xyz 
  x,y,z 
_cell_length_a                    31.22974183 
_cell_length_b                    31.147454805001203 
_cell_length_c                    54.5779291922097 
_cell_angle_alpha                 89.79874528723064 
_cell_angle_beta                  90.30721092664835 
_cell_angle_gamma                 89.74060908587926 
loop_ 
_atom_site_label 
_atom_site_type_symbol 
_atom_site_fract_x 
_atom_site_fract_y 
_atom_site_fract_z 
_atom_site_charge 
N1          N  0.47080607  0.55763758  0.67320197    -0.27200
N2          N  0.46952124  0.57826942  0.65202851    -0.35000
C3          C  0.46226081  0.62015264  0.65610824     0.01200
C4          C  0.45877702  0.62655328  0.68113922     0.07200
C5          C  0.46409836  0.58597132  0.69139215    -0.05900
H6          H  0.46091309  0.64424336  0.64181805     0.07900
H7          H  0.46538298  0.57792282  0.71069004     0.09100
Cu8        Cu  0.48187478  0.54980409  0.61856801     0.44200
Cu9        Cu  0.48679092  0.49292786  0.67581973     0.42000
Cu10       Cu  0.52840960  0.44460279  0.61889405     0.43900
N11         N  0.49972627  0.51808716  0.58692721    -0.34500
N12         N  0.51919269  0.48030963  0.58690965    -0.28800
C13         C  0.52701555  0.46892289  0.56353851    -0.04900
C14         C  0.51094566  0.50080931  0.54826100     0.07300
C15         C  0.49377011  0.53133570  0.56368004     0.01100
H16         H  0.54139715  0.43878200  0.55803937     0.08800
H17         H  0.47796354  0.56095008  0.55840291     0.07800
N18         N  0.52410294  0.41284806  0.65248104    -0.36000
N19         N  0.50793593  0.42980617  0.67264574    -0.28200
C20         C  0.50666344  0.39946463  0.69022778    -0.03400
C21         C  0.52287350  0.36153999  0.68078161     0.05200
C22         C  0.53378864  0.37136799  0.65683748     0.03300
H23         H  0.49449073  0.40466864  0.70847520     0.08400
H24         H  0.54622753  0.34952826  0.64320203     0.07200
N25         N  0.56906840  0.50192215  0.39518481    -0.27200
N26         N  0.59140744  0.49847019  0.41572274    -0.35000
C27         C  0.63342323  0.49914476  0.41033930     0.01200
C28         C  0.63786792  0.50338304  0.38513955     0.07200
C29         C  0.59620561  0.50504247  0.37620162    -0.05900
H30         H  0.65881602  0.49772949  0.42389623     0.07900
H31         H  0.58617423  0.50824119  0.35727644     0.09100
Cu32       Cu  0.56298543  0.49518138  0.45008723     0.44200
Cu33       Cu  0.50260253  0.50310132  0.39420649     0.42000
Cu34       Cu  0.44677209  0.51183738  0.45207653     0.43900
N35         N  0.52761820  0.49815086  0.48226493    -0.34500
N36         N  0.48612175  0.50696811  0.48303943    -0.28800
C37         C  0.47404320  0.50956600  0.50664008    -0.04900
C38         C  0.50932012  0.50105390  0.52132559     0.07300
C39         C  0.54268499  0.49381222  0.50532233     0.01100
H40         H  0.44172737  0.51621995  0.51267254     0.08800
H41         H  0.57571238  0.48703786  0.51007055     0.07800
N42         N  0.41559022  0.50804522  0.41820284    -0.36000
N43         N  0.43636098  0.50430420  0.39727996    -0.28200
C44         C  0.40789047  0.50069945  0.37887057    -0.03400
C45         C  0.36683238  0.50218880  0.38845717     0.05200
C46         C  0.37315018  0.50696648  0.41355638     0.03300
H47         H  0.41679930  0.49715897  0.35986187     0.08400
H48         H  0.34878937  0.50851964  0.42755928     0.07200
C49         C  0.41134910  0.95673709  0.79672560     0.03300
C50         C  0.44506058  0.98627115  0.79509934    -0.12900
C51         C  0.48154703  0.97660440  0.78117843     0.00800
C52         C  0.48430868  0.93707297  0.76892700    -0.11400
C53         C  0.45081097  0.90720112  0.77039656     0.03300
C54         C  0.41458334  0.91737763  0.78437732    -0.10800
H55         H  0.44271751  0.01691409  0.80434958     0.08800
H56         H  0.51256536  0.92965786  0.75827462     0.06400
H57         H  0.38837726  0.89477094  0.78540092     0.06200
C58         C  0.54442360  0.07646850  0.76502211     0.03300
C59         C  0.51022349  0.04779554  0.76788006    -0.12900
C60         C  0.51687909  0.00779998  0.77928977     0.00800
C61         C  0.55758247  0.99724959  0.78861751    -0.11400
C62         C  0.59163634  0.02647522  0.78686126     0.03300
C63         C  0.58482291  0.06568067  0.77465216    -0.10800
H64         H  0.47892422  0.05588865  0.76048346     0.08800
H65         H  0.56248130  0.96647299  0.79755742     0.06400
H66         H  0.61060271  0.08871068  0.77334242     0.06200
N67         N  0.00801253  0.07001913  0.16937873    -0.27200
N68         N  0.01359234  0.09036751  0.14833428    -0.35000
C69         C  0.01895528  0.13254287  0.15279948     0.01200
C70         C  0.01715950  0.13910597  0.17790636     0.07200
C71         C  0.01024689  0.09861843  0.18776492    -0.05900
H72         H  0.02417536  0.15659870  0.13876643     0.07900
H73         H  0.00630276  0.09055972  0.20690638     0.09100
Cu74       Cu  0.01284950  0.05958923  0.11451094     0.44200
Cu75       Cu  0.99613911  0.00432026  0.17228410     0.42000
Cu76       Cu  0.97679321  0.94849121  0.11572557     0.43900
N77         N  0.00265271  0.02253445  0.08335365    -0.34500
N78         N  0.98621486  0.98345578  0.08389002    -0.28800
C79         C  0.98039909  0.96961581  0.06079921    -0.04900
C80         C  0.99468699  0.00109918  0.04504501     0.07300
C81         C  0.00887482  0.03406569  0.05985442     0.01100
H82         H  0.96807870  0.93838085  0.05589334     0.08800
H83         H  0.02198130  0.06450729  0.05398067     0.07800
N84         N  0.97874810  0.91787255  0.14946822    -0.36000
N85         N  0.98511844  0.93839112  0.17032128    -0.28200
C86         C  0.98514622  0.90965962  0.18880693    -0.03400
C87         C  0.97909814  0.86901883  0.17908871     0.05200
C88         C  0.97526992  0.87553890  0.15405997     0.03300
H89         H  0.99028109  0.91765099  0.20785749     0.08400
H90         H  0.97012662  0.85132128  0.14017139     0.07200
N91         N  0.93540512  0.00463669  0.89210375    -0.27200
N92         N  0.91298501  0.99946056  0.91234922    -0.35000
C93         C  0.87105790  0.99956235  0.90654736     0.01200
C94         C  0.86671426  0.00499018  0.88135969     0.07200
C95         C  0.90840904  0.00811584  0.87290046    -0.05900
H96         H  0.84571094  0.99635637  0.91984345     0.07900
H97         H  0.91864520  0.01221029  0.85414727     0.09100
Cu98       Cu  0.94073057  0.99355322  0.94699975     0.44200
Cu99       Cu  0.00174195  0.00706859  0.89150910     0.42000
Cu100      Cu  0.05709183  0.00630316  0.94944808     0.43900
N101        N  0.97655997  0.99503726  0.97928905    -0.34500
N102        N  0.01834218  0.00195499  0.98002464    -0.28800
C103        C  0.03105729  0.00518815  0.00351378    -0.04900
C104        C  0.99581506  0.99929263  0.01823502     0.07300
C105        C  0.96182168  0.99267342  0.00239591     0.01100
H106        H  0.06363782  0.01108614  0.00941677     0.08800
H107        H  0.92859873  0.98805591  0.00727335     0.07800
N108        N  0.08848164  0.00833107  0.91614470    -0.36000
N109        N  0.06788920  0.00870866  0.89495460    -0.28200
C110        C  0.09654938  0.00844559  0.87672032    -0.03400
C111        C  0.13746090  0.00762483  0.88681499     0.05200
C112        C  0.13093737  0.00774357  0.91195302     0.03300
H113        H  0.08787678  0.00815146  0.85753416     0.08400
H114        H  0.15509460  0.00596658  0.92620254     0.07200
C115        C  0.04596635  0.41500171  0.27112438     0.03300
C116        C  0.08413029  0.42286618  0.28416274    -0.12900
C117        C  0.09044778  0.46182425  0.29664439     0.00800
C118        C  0.05801082  0.49325694  0.29591958    -0.11400
C119        C  0.01966851  0.48587800  0.28308567     0.03300
C120        C  0.01374068  0.44670736  0.27086288    -0.10800
H121        H  0.10918403  0.39869175  0.28447132     0.08800
H122        H  0.06258813  0.52355380  0.30527347     0.06400
H123        H  0.98398434  0.44101193  0.26112673     0.06200
C124        C  0.95960270  0.59018060  0.27072615     0.03300
C125        C  0.99231125  0.55894208  0.27142502    -0.12900
C126        C  0.98545666  0.51891227  0.28266015     0.00800
C127        C  0.94576445  0.51021282  0.29348435    -0.11400
C128        C  0.91298258  0.54131445  0.29356803     0.03300
C129        C  0.92020400  0.58107146  0.28200884    -0.10800
H130        H  0.02303877  0.56558303  0.26312390     0.08800
H131        H  0.94059080  0.47916961  0.30194377     0.06400
H132        H  0.89501966  0.60509229  0.28179264     0.06200
C133        C  0.00419989  0.33589848  0.19596984    -0.17700
C134        C  0.00108921  0.29755577  0.18273963    -0.19900
C135        C  0.01330697  0.25829496  0.19347022     0.20800
C136        C  0.02879388  0.25775643  0.21782240    -0.02800
C137        C  0.03231385  0.29651825  0.23110780    -0.05800
C138        C  0.01984693  0.33575807  0.22014549     0.21100
C139        C  0.04843283  0.29597126  0.25532220     0.19200
C140        C  0.06050547  0.25673723  0.26609295    -0.17300
C141        C  0.05663452  0.21834954  0.25304169    -0.19500
C142        C  0.04081078  0.21850348  0.22892003     0.20700
C143        C  0.03679181  0.18007173  0.21575615    -0.32600
C144        C  0.02152456  0.18021096  0.19145090     0.01400
C145        C  0.01016665  0.21958403  0.18036607    -0.23900
C146        C  0.02361720  0.37415818  0.23345346    -0.28500
C147        C  0.04023713  0.37398979  0.25750792     0.07100
C148        C  0.05239919  0.33463171  0.26829581    -0.27100
H149        H  0.99452471  0.36570709  0.18725043     0.11800
H150        H  0.98901970  0.29861692  0.16407275     0.12900
H151        H  0.07296347  0.25572043  0.28468088     0.12000
H152        H  0.06609673  0.18851794  0.26180947     0.11300
H153        H  0.04611249  0.15003790  0.22437592     0.16600
H154        H  0.99806858  0.22002889  0.16169696     0.12600
H155        H  0.01458496  0.40432959  0.22488758     0.15400
H156        H  0.06475980  0.33409491  0.28691780     0.15200
C157        C  0.93745527  0.74754774  0.26578818    -0.17700
C158        C  0.93983778  0.78634627  0.25290057    -0.19900
C159        C  0.95796315  0.78771162  0.22944149     0.20800
C160        C  0.97395874  0.74962271  0.21887747    -0.02800
C161        C  0.97198242  0.71049349  0.23203796    -0.05800
C162        C  0.95336088  0.70947028  0.25553669     0.21100
C163        C  0.98823984  0.67240112  0.22160497     0.19200
C164        C  0.00637778  0.67384073  0.19812588    -0.17300
C165        C  0.00793768  0.71252053  0.18497416    -0.19500
C166        C  0.99166543  0.75057782  0.19513650     0.20700
C167        C  0.99275451  0.78954556  0.18203157    -0.32600
C168        C  0.97732328  0.82772086  0.19263003     0.01400
C169        C  0.96019651  0.82650925  0.21637775    -0.23900
C170        C  0.95045704  0.67034847  0.26823883    -0.28500
C171        C  0.96586699  0.63199253  0.25785703     0.07100
C172        C  0.98534911  0.63348656  0.23463958    -0.27100
H173        H  0.92298741  0.74731870  0.28384509     0.11800
H174        H  0.92732194  0.81522598  0.26122052     0.12900
H175        H  0.01905385  0.64490274  0.18981520     0.12000
H176        H  0.02181470  0.71265412  0.16683554     0.11300
H177        H  0.00629489  0.79033260  0.16379725     0.16600
H178        H  0.94788255  0.85567358  0.22452868     0.12600
H179        H  0.93596803  0.66970539  0.28629146     0.15400
H180        H  0.99696932  0.60408936  0.22635513     0.15200
C181        C  0.74972067  0.03970587  0.79067878    -0.17700
C182        C  0.78799303  0.03782837  0.80414942    -0.19900
C183        C  0.78825042  0.02274427  0.82843796     0.20800
C184        C  0.74961982  0.00898816  0.83913022    -0.02800
C185        C  0.71104495  0.01073286  0.82551812    -0.05800
C186        C  0.71103025  0.02653462  0.80125535     0.21100
C187        C  0.67239560  0.99737674  0.83637122     0.19200
C188        C  0.67266815  0.98192901  0.86054120    -0.17300
C189        C  0.71082934  0.98024322  0.87401057    -0.19500
C190        C  0.74938446  0.99392160  0.86353235     0.20700
C191        C  0.78761207  0.99286964  0.87711145    -0.32600
C192        C  0.82638587  0.00654591  0.86670425     0.01400
C193        C  0.82635480  0.02139162  0.84226009    -0.23900
C194        C  0.67220037  0.02984519  0.78825492    -0.28500
C195        C  0.63331265  0.01783528  0.79926862     0.07100
C196        C  0.63392539  0.00081681  0.82316569    -0.27100
H197        H  0.75032294  0.05187441  0.77205991     0.11800
H198        H  0.81735302  0.04846044  0.79562076     0.12900
H199        H  0.64327009  0.97155658  0.86912770     0.12000
H200        H  0.71012751  0.96848616  0.89271095     0.11300
H201        H  0.78702904  0.98094533  0.89575642     0.16600
H202        H  0.85578666  0.03235802  0.83399597     0.12600
H203        H  0.67211200  0.04249725  0.76972587     0.15400
H204        H  0.60416291  0.99204165  0.83193884     0.15200
C205        C  0.33506612  0.00435769  0.87166238    -0.17700
C206        C  0.29667686  0.01137230  0.88428572    -0.19900
C207        C  0.25701013  0.00456375  0.87268924     0.20800
C208        C  0.25613819  0.99088139  0.84807199    -0.02800
C209        C  0.29478368  0.98353660  0.83540709    -0.05800
C210        C  0.33450460  0.99029158  0.84723216     0.21100
C211        C  0.29358394  0.96906374  0.81094524     0.19200
C212        C  0.25408276  0.96261009  0.79924294    -0.17300
C213        C  0.21590445  0.97015034  0.81171364    -0.19500
C214        C  0.21662081  0.98404991  0.83612042     0.20700
C215        C  0.17836666  0.99053378  0.84880388    -0.32600
C216        C  0.17863906  0.00338213  0.87347850     0.01400
C217        C  0.21822844  0.01067111  0.88527495    -0.23900
C218        C  0.37277482  0.98242200  0.83444293    -0.28500
C219        C  0.37155917  0.96729077  0.81016557     0.07100
C220        C  0.33184807  0.96096164  0.79857754    -0.27100
H221        H  0.36522095  0.00968389  0.88106696     0.11800
H222        H  0.29802111  0.02193466  0.90316719     0.12900
H223        H  0.25270815  0.95156986  0.78047029     0.12000
H224        H  0.18577568  0.96476898  0.80230895     0.11300
H225        H  0.14841280  0.98434119  0.83946411     0.16600
H226        H  0.21896572  0.02095236  0.90421205     0.12600
H227        H  0.40340410  0.98707688  0.84348151     0.15400
H228        H  0.33080818  0.94979516  0.77980848     0.15200
C229        C  0.20801416  0.51314721  0.38406733    -0.17700
C230        C  0.16946119  0.50775704  0.37120238    -0.19900
C231        C  0.16949777  0.49234005  0.34704910     0.20800
C232        C  0.20885956  0.48262179  0.33570290    -0.02800
C233        C  0.24776934  0.48827484  0.34865248    -0.05800
C234        C  0.24735466  0.50331997  0.37301075     0.21100
C235        C  0.28703474  0.47849684  0.33726779     0.19200
C236        C  0.28714906  0.46350018  0.31304961    -0.17300
C237        C  0.24868510  0.45769381  0.30027207    -0.19500
C238        C  0.20938318  0.46691076  0.31147985     0.20700
C239        C  0.17064924  0.46040749  0.29890508    -0.32600
C240        C  0.13122570  0.46973225  0.31008765     0.01400
C241        C  0.13093875  0.48609649  0.33411628    -0.23900
C242        C  0.28620414  0.50800437  0.38590768    -0.28500
C243        C  0.32560488  0.49797189  0.37475177     0.07100
C244        C  0.32549306  0.48346990  0.35032283    -0.27100
H245        H  0.20703248  0.52484440  0.40272889     0.11800
H246        H  0.13957645  0.51541145  0.38020921     0.12900
H247        H  0.31711270  0.45593413  0.30399055     0.12000
H248        H  0.24965946  0.44580773  0.28169290     0.11300
H249        H  0.17113213  0.44834773  0.28032462     0.16600
H250        H  0.10066572  0.49309402  0.34289456     0.12600
H251        H  0.28562926  0.51958151  0.40458312     0.15400
H252        H  0.35534747  0.47522869  0.34140379     0.15200
C253        C  0.75485768  0.55516619  0.29825415    -0.17700
C254        C  0.71652689  0.55000730  0.31109603    -0.19900
C255        C  0.71640456  0.53029947  0.33427008     0.20800
C256        C  0.75527343  0.51523592  0.34449377    -0.02800
C257        C  0.79397315  0.52032215  0.33149441    -0.05800
C258        C  0.79378368  0.54068286  0.30835411     0.21100
C259        C  0.83287529  0.50553250  0.34180665     0.19200
C260        C  0.83269278  0.48536613  0.36484560    -0.17300
C261        C  0.79440389  0.48043325  0.37774250    -0.19500
C262        C  0.75557894  0.49553950  0.36782038     0.20700
C263        C  0.71716935  0.49160297  0.38090586    -0.32600
C264        C  0.67825748  0.50682552  0.37095158     0.01400
C265        C  0.67820036  0.52581460  0.34748931    -0.23900
C266        C  0.83253281  0.54668483  0.29586062    -0.28500
C267        C  0.87165177  0.53276737  0.30621328     0.07100
C268        C  0.87134804  0.51178326  0.32911512    -0.27100
H269        H  0.75409693  0.57077733  0.28050312     0.11800
H270        H  0.68694425  0.56174352  0.30294923     0.12900
H271        H  0.86227441  0.47371051  0.37300807     0.12000
H272        H  0.79521080  0.46506820  0.39557418     0.11300
H273        H  0.71762304  0.47646182  0.39880422     0.16600
H274        H  0.64856675  0.53799406  0.33965922     0.12600
H275        H  0.83223928  0.56223431  0.27807347     0.15400
H276        H  0.90126524  0.50136741  0.33742566     0.15200
C277        C  0.47284246  0.21746253  0.75393426    -0.17700
C278        C  0.47066577  0.25775423  0.74253350    -0.19900
C279        C  0.49915887  0.26840196  0.72367325     0.20800
C280        C  0.53000905  0.23806335  0.71611507    -0.02800
C281        C  0.53248666  0.19757643  0.72777267    -0.05800
C282        C  0.50372780  0.18719639  0.74676945     0.21100
C283        C  0.56399638  0.16765670  0.72054732     0.19200
C284        C  0.59217042  0.17808436  0.70152307    -0.18900
C285        C  0.58938907  0.21797379  0.68978260    -0.19500
C286        C  0.55855497  0.24823552  0.69700207     0.20700
C287        C  0.55591055  0.28852501  0.68550189    -0.32600
C288        C  0.52553562  0.31910977  0.69308502     0.01400
C289        C  0.49735572  0.30881730  0.71224606    -0.23900
C290        C  0.50679864  0.14699996  0.75845065    -0.28500
C291        C  0.53882321  0.11756389  0.75167060     0.07100
C292        C  0.56708582  0.12803291  0.73264293    -0.27100
H293        H  0.45056325  0.21008727  0.76847907     0.11800
H294        H  0.44668173  0.28065387  0.74850583     0.12900
H295        H  0.61651423  0.15534928  0.69573854     0.12000
H296        H  0.61151588  0.22526363  0.67516271     0.11300
H297        H  0.57794244  0.29629034  0.67089672     0.16600
H298        H  0.47347710  0.33197934  0.71801429     0.12600
H299        H  0.48519219  0.13904642  0.77325558     0.15400
H300        H  0.59164597  0.10514890  0.72730555     0.15200
C301        C  0.42655755  0.75043707  0.76811485    -0.17700
C302        C  0.42690276  0.71131412  0.75558978    -0.19900
C303        C  0.44037405  0.70939374  0.73112264     0.20800
C304        C  0.45326059  0.74738874  0.71911158    -0.02800
C305        C  0.45316701  0.78684453  0.73180425    -0.05800
C306        C  0.43976471  0.78829955  0.75642326     0.21100
C307        C  0.46661050  0.82474778  0.71988916     0.19200
C308        C  0.47960442  0.82289742  0.69533933    -0.17300
C309        C  0.47952957  0.78385313  0.68273113    -0.19500
C310        C  0.46656693  0.74594054  0.69448678     0.20700
C311        C  0.46728151  0.70656012  0.68210984    -0.32600
C312        C  0.45536173  0.66831433  0.69406498     0.01400
C313        C  0.44162078  0.67011199  0.71855680    -0.23900
C314        C  0.43971991  0.82756292  0.76891842    -0.28500
C315        C  0.45292425  0.86555978  0.75719991     0.07100
C316        C  0.46658610  0.86380912  0.73269029    -0.27100
H317        H  0.41607638  0.75104617  0.78701429     0.11800
H318        H  0.41679627  0.68253482  0.76507219     0.12900
H319        H  0.48990710  0.85169067  0.68586932     0.12000
H320        H  0.48982624  0.78327209  0.66384415     0.11300
H321        H  0.47830610  0.70571473  0.66338178     0.16600
H322        H  0.43194562  0.64100314  0.72786750     0.12600
H323        H  0.42958286  0.82855422  0.78787587     0.15400
H324        H  0.47629245  0.89301575  0.72343494     0.15200
loop_ 
_geom_bond_atom_site_label_1 
_geom_bond_atom_site_label_2 
_geom_bond_distance 
_geom_bond_site_symmetry_2 
_ccdc_geom_bond_type 
N1            N2   1.321       .  A
N1            C5   1.347       .  A
N1           Cu9   2.078       .  S
N2            C3   1.343       .  A
N2           Cu8   2.070       .  S
C3            C4   1.386       .  A
C3            H6   1.081       .  S
C4            C5   1.389       .  A
C4          C312   1.486       .  S
C5            H7   1.082       .  S
Cu8          N11   2.070       .  S
Cu9          N19   2.079       .  S
Cu10         N12   2.084       .  S
Cu10         N18   2.085       .  S
N11          N12   1.322       .  A
N11          C15   1.345       .  A
N12          C13   1.348       .  A
C13          C14   1.385       .  A
C13          H16   1.083       .  S
C14          C15   1.381       .  A
C14          C38   1.471       .  S
C15          H17   1.082       .  S
N18          N19   1.324       .  A
N18          C22   1.346       .  A
N19          C20   1.345       .  A
C20          C21   1.385       .  A
C20          H23   1.080       .  S
C21          C22   1.386       .  A
C21         C288   1.482       .  S
C22          H24   1.082       .  S
N25          N26   1.321       .  A
N25          C29   1.346       .  A
N25         Cu33   2.076       .  S
N26          C27   1.346       .  A
N26         Cu32   2.082       .  S
C27          C28   1.389       .  A
C27          H30   1.082       .  S
C28          C29   1.388       .  A
C28         C264   1.488       .  S
C29          H31   1.082       .  S
Cu32         N35   2.082       .  S
Cu33         N43   2.077       .  S
Cu34         N36   2.089       .  S
Cu34         N42   2.089       .  S
N35          N36   1.324       .  A
N35          C39   1.347       .  A
N36          C37   1.347       .  A
C37          C38   1.383       .  A
C37          H40   1.083       .  S
C38          C39   1.381       .  A
C39          H41   1.082       .  S
N42          N43   1.322       .  A
N42          C46   1.349       .  A
N43          C44   1.343       .  A
C44          C45   1.388       .  A
C44          H47   1.081       .  S
C45          C46   1.392       .  A
C45         C243   1.492       .  S
C46          H48   1.082       .  S
C49          C50   1.404       .  A
C49          C54   1.405       .  A
C49         C219   1.483       .  S
C50          C51   1.405       .  A
C50          H55   1.084   1_565  S
C51          C52   1.406       .  A
C51          C60   1.477   1_565  S
C52          C53   1.406       .  A
C52          H56   1.084       .  S
C53          C54   1.404       .  A
C53         C315   1.487       .  S
C54          H57   1.084       .  S
C58          C59   1.404       .  A
C58          C63   1.403       .  A
C58         C291   1.480       .  S
C59          C60   1.405       .  A
C59          H64   1.084       .  S
C60          C61   1.404   1_545  A
C61          C62   1.406   1_565  A
C61          H65   1.084       .  S
C62          C63   1.404       .  A
C62         C195   1.487       .  S
C63          H66   1.083       .  S
N67          N68   1.323       .  A
N67          C71   1.346       .  A
N67         Cu75   2.087   1_455  S
N68          C69   1.348       .  A
N68         Cu74   2.083       .  S
C69          C70   1.388       .  A
C69          H72   1.083       .  S
C70          C71   1.388       .  A
C70         C144   1.487       .  S
C71          H73   1.081       .  S
Cu74         N77   2.082       .  S
Cu75         N85   2.087   1_545  S
Cu76         N78   2.070       .  S
Cu76         N84   2.071       .  S
N77          N78   1.323   1_445  A
N77          C81   1.346       .  A
N78          C79   1.345       .  A
C79          C80   1.379   1_565  A
C79          H82   1.082       .  S
C80          C81   1.382   1_655  A
C80         C104   1.465   1_545  S
C81          H83   1.083       .  S
N84          N85   1.322       .  A
N84          C88   1.346       .  A
N85          C86   1.346       .  A
C86          C87   1.388       .  A
C86          H89   1.081       .  S
C87          C88   1.385       .  A
C87         C168   1.483       .  S
C88          H90   1.083       .  S
N91          N92   1.321   1_545  A
N91          C95   1.345       .  A
N91         Cu99   2.074   1_655  S
N92          C93   1.345       .  A
N92         Cu98   2.083       .  S
C93          C94   1.390   1_565  A
C93          H96   1.081       .  S
C94          C95   1.388       .  A
C94         C192   1.489       .  S
C95          H97   1.081       .  S
Cu98        N101   2.083       .  S
Cu99        N109   2.074       .  S
Cu100       N102   2.071       .  S
Cu100       N108   2.071       .  S
N101        N102   1.324   1_665  A
N101        C105   1.347   1_556  A
N102        C103   1.344   1_556  A
C103        C104   1.379   1_445  A
C103        H106   1.082       .  S
C104        C105   1.382       .  A
C105        H107   1.083       .  S
N108        N109   1.320       .  A
N108        C112   1.347       .  A
N109        C110   1.342       .  A
C110        C111   1.389       .  A
C110        H113   1.080       .  S
C111        C112   1.388       .  A
C111        C216   1.487       .  S
C112        H114   1.082       .  S
C115        C116   1.408       .  A
C115        C120   1.407       .  A
C115        C147   1.491       .  S
C116        C117   1.408       .  A
C116        H121   1.083       .  S
C117        C118   1.406       .  A
C117        C240   1.488       .  S
C118        C119   1.404       .  A
C118        H122   1.084       .  S
C119        C120   1.405       .  A
C119        C126   1.480   1_455  S
C120        H123   1.084   1_455  S
C124        C125   1.408       .  A
C124        C129   1.408       .  A
C124        C171   1.492       .  S
C125        C126   1.405       .  A
C125        H130   1.084   1_655  S
C126        C127   1.403       .  A
C127        C128   1.406       .  A
C127        H131   1.083       .  S
C128        C129   1.407       .  A
C128        C267   1.492       .  S
C129        H132   1.083       .  S
C133        C134   1.401       .  A
C133        C138   1.405       .  A
C133        H149   1.083   1_455  S
C134        C135   1.404       .  A
C134        H150   1.085   1_455  S
C135        C145   1.408       .  A
C135        C136   1.412       .  A
C136        C142   1.411       .  A
C136        C137   1.415       .  A
C137        C139   1.412       .  A
C137        C138   1.411       .  A
C138        C146   1.407       .  A
C139        C148   1.405       .  A
C139        C140   1.403       .  A
C140        C141   1.399       .  A
C140        H151   1.085       .  S
C141        C142   1.404       .  A
C141        H152   1.083       .  S
C142        C143   1.404       .  A
C143        C144   1.407       .  A
C143        H153   1.084       .  S
C144        C145   1.409       .  A
C145        H154   1.085   1_455  S
C146        C147   1.409       .  A
C146        H155   1.084       .  S
C147        C148   1.408       .  A
C148        H156   1.085       .  S
C157        C158   1.399       .  A
C157        C162   1.403       .  A
C157        H173   1.086       .  S
C158        C159   1.403       .  A
C158        H174   1.082       .  S
C159        C169   1.403       .  A
C159        C160   1.411       .  A
C160        C166   1.412       .  A
C160        C161   1.414       .  A
C161        C163   1.411       .  A
C161        C162   1.411       .  A
C162        C170   1.403       .  A
C163        C172   1.407       .  A
C163        C164   1.404   1_655  A
C164        C165   1.401       .  A
C164        H175   1.085       .  S
C165        C166   1.405   1_455  A
C165        H176   1.083       .  S
C166        C167   1.407       .  A
C167        C168   1.408       .  A
C167        H177   1.084   1_655  S
C168        C169   1.405       .  A
C169        H178   1.083       .  S
C170        C171   1.408       .  A
C170        H179   1.087       .  S
C171        C172   1.409       .  A
C172        H180   1.085       .  S
C181        C182   1.401       .  A
C181        C186   1.404       .  A
C181        H197   1.084       .  S
C182        C183   1.405       .  A
C182        H198   1.083       .  S
C183        C193   1.406       .  A
C183        C184   1.411       .  A
C184        C190   1.411   1_545  A
C184        C185   1.413       .  A
C185        C187   1.411   1_545  A
C185        C186   1.411       .  A
C186        C194   1.405       .  A
C187        C196   1.401   1_565  A
C187        C188   1.403       .  A
C188        C189   1.398       .  A
C188        H199   1.083       .  S
C189        C190   1.403       .  A
C189        H200   1.083       .  S
C190        C191   1.402       .  A
C191        C192   1.407   1_565  A
C191        H201   1.082       .  S
C192        C193   1.410       .  A
C193        H202   1.082       .  S
C194        C195   1.409       .  A
C194        H203   1.084       .  S
C195        C196   1.406       .  A
C196        H204   1.084   1_545  S
C205        C206   1.403       .  A
C205        C210   1.405   1_545  A
C205        H221   1.084       .  S
C206        C207   1.405       .  A
C206        H222   1.084       .  S
C207        C217   1.408       .  A
C207        C208   1.411   1_545  A
C208        C214   1.410       .  A
C208        C209   1.412       .  A
C209        C211   1.411       .  A
C209        C210   1.412       .  A
C210        C218   1.408       .  A
C211        C220   1.398       .  A
C211        C212   1.402       .  A
C212        C213   1.395       .  A
C212        H223   1.083       .  S
C213        C214   1.402       .  A
C213        H224   1.083       .  S
C214        C215   1.398       .  A
C215        C216   1.406   1_565  A
C215        H225   1.081       .  S
C216        C217   1.411       .  A
C217        H226   1.083       .  S
C218        C219   1.408       .  A
C218        H227   1.084       .  S
C219        C220   1.404       .  A
C220        H228   1.083       .  S
C229        C230   1.402       .  A
C229        C234   1.405       .  A
C229        H245   1.083       .  S
C230        C231   1.405       .  A
C230        H246   1.083       .  S
C231        C241   1.407       .  A
C231        C232   1.411       .  A
C232        C238   1.411       .  A
C232        C233   1.414       .  A
C233        C235   1.410       .  A
C233        C234   1.411       .  A
C234        C242   1.408       .  A
C235        C244   1.403       .  A
C235        C236   1.403       .  A
C236        C237   1.399       .  A
C236        H247   1.086       .  S
C237        C238   1.403       .  A
C237        H248   1.081       .  S
C238        C239   1.403       .  A
C239        C240   1.407       .  A
C239        H249   1.083       .  S
C240        C241   1.409       .  A
C241        H250   1.084       .  S
C242        C243   1.410       .  A
C242        H251   1.083       .  S
C243        C244   1.409       .  A
C244        H252   1.084       .  S
C253        C254   1.400       .  A
C253        C258   1.404       .  A
C253        H269   1.083       .  S
C254        C255   1.404       .  A
C254        H270   1.085       .  S
C255        C265   1.405       .  A
C255        C256   1.411       .  A
C256        C262   1.411       .  A
C256        C257   1.414       .  A
C257        C259   1.411       .  A
C257        C258   1.411       .  A
C258        C266   1.405       .  A
C259        C268   1.404       .  A
C259        C260   1.404       .  A
C260        C261   1.400       .  A
C260        H271   1.084       .  S
C261        C262   1.404       .  A
C261        H272   1.083       .  S
C262        C263   1.405       .  A
C263        C264   1.408       .  A
C263        H273   1.083       .  S
C264        C265   1.409       .  A
C265        H274   1.084       .  S
C266        C267   1.409       .  A
C266        H275   1.083       .  S
C267        C268   1.409       .  A
C268        H276   1.084       .  S
C277        C278   1.400       .  A
C277        C282   1.404       .  A
C277        H293   1.083       .  S
C278        C279   1.404       .  A
C278        H294   1.084       .  S
C279        C289   1.404       .  A
C279        C280   1.411       .  A
C280        C286   1.412       .  A
C280        C281   1.412       .  A
C281        C283   1.411       .  A
C281        C282   1.413       .  A
C282        C290   1.406       .  A
C283        C292   1.400       .  A
C283        C284   1.403       .  A
C284        C285   1.398       .  A
C284        H295   1.086       .  S
C285        C286   1.403       .  A
C285        H296   1.082       .  S
C286        C287   1.403       .  A
C287        C288   1.406       .  A
C287        H297   1.083       .  S
C288        C289   1.407       .  A
C289        H298   1.084       .  S
C290        C291   1.406       .  A
C290        H299   1.084       .  S
C291        C292   1.405       .  A
C292        H300   1.086       .  S
C301        C302   1.399       .  A
C301        C306   1.404       .  A
C301        H317   1.084       .  S
C302        C303   1.404       .  A
C302        H318   1.083       .  S
C303        C313   1.405       .  A
C303        C304   1.412       .  A
C304        C310   1.410       .  A
C304        C305   1.413       .  A
C305        C307   1.412       .  A
C305        C306   1.410       .  A
C306        C314   1.402       .  A
C307        C316   1.405       .  A
C307        C308   1.403       .  A
C308        C309   1.399       .  A
C308        H319   1.084       .  S
C309        C310   1.404       .  A
C309        H320   1.082       .  S
C310        C311   1.403       .  A
C311        C312   1.409       .  A
C311        H321   1.081       .  S
C312        C313   1.407       .  A
C313        H322   1.083       .  S
C314        C315   1.408       .  A
C314        H323   1.084       .  S
C315        C316   1.407       .  A
C316        H324   1.084       .  S
