geometry optimzed in LAMMPS
_audit_creation_date              2020-11-30 
_audit_creation_method            'lammps2cif' 
_symmetry_space_group_name_H-M    'P1' 
_symmetry_Int_Tables_number       1 
_symmetry_cell_setting            triclinic 
loop_ 
_symmetry_equiv_pos_as_xyz 
  x,y,z 
_cell_length_a                    24.98087986507685 
_cell_length_b                    24.837175932682 
_cell_length_c                    25.128882156141408 
_cell_angle_alpha                 89.99204545304475 
_cell_angle_beta                  89.97175121624983 
_cell_angle_gamma                 90.00898978775162 
loop_ 
_atom_site_label 
_atom_site_type_symbol 
_atom_site_fract_x 
_atom_site_fract_y 
_atom_site_fract_z 
_atom_site_charge 
O1          O  0.40111701  0.39521138  0.89892120    -0.72800
O2          O  0.44905521  0.44257253  0.83711039    -0.51710
C3          C  0.41385696  0.40746453  0.85084157     0.80930
O4          O  0.40392581  0.61015757  0.07789997    -0.57400
O5          O  0.45099672  0.56157723  0.13938290    -0.50430
C6          C  0.41653462  0.59741287  0.12589069     0.72950
O7          O  0.40194641  0.60946246  0.89856425    -0.71960
O8          O  0.44939502  0.56148914  0.83684879    -0.52520
C9          C  0.41453371  0.59695509  0.85046028     0.78950
O10         O  0.40319638  0.39423320  0.07748109    -0.57100
O11         O  0.45077048  0.44215749  0.13907668    -0.50220
C12         C  0.41598584  0.40665809  0.12545316     0.75540
Zr13       Zr  0.42866475  0.42217907  0.98811984     2.54710
O14         O  0.33132242  0.42667157  0.98948553    -0.77670
O15         O  0.42976407  0.32413649  0.98948282    -0.91080
Zr16       Zr  0.42871349  0.58209909  0.98810448     2.64680
O17         O  0.33131914  0.57734644  0.98815583    -0.96040
O18         O  0.42886863  0.68012240  0.98874855    -0.78100
O19         O  0.42743272  0.50213598  0.93641779    -0.81460
O20         O  0.42775138  0.50211186  0.03968694    -2.16170
O21         O  0.61533716  0.39563799  0.07725154    -0.64850
O22         O  0.56817770  0.44351848  0.13919101    -0.49410
C23         C  0.60343975  0.40856651  0.12539234     0.73920
O24         O  0.61702723  0.60648705  0.89773805    -0.57750
O25         O  0.56801207  0.55998830  0.83618190    -0.49730
C26         C  0.60431470  0.59404431  0.84961313     0.75730
O27         O  0.61557159  0.60812177  0.07756675    -0.69150
O28         O  0.56796908  0.56047521  0.13939071    -0.47830
C29         C  0.60338983  0.59533661  0.12573098     0.77110
O30         O  0.61663714  0.39716005  0.89791872    -0.64480
O31         O  0.56802601  0.44398726  0.83630853    -0.51680
C32         C  0.60413083  0.40976639  0.84982860     0.75490
Zr33       Zr  0.58764372  0.42164546  0.98760168     2.77540
O34         O  0.68509007  0.41949105  0.98686618    -0.95230
O35         O  0.57974168  0.32394094  0.98718588    -0.76050
Zr36       Zr  0.58780348  0.58235367  0.98767766     2.70070
O37         O  0.68516893  0.58461486  0.98870371    -0.77300
O38         O  0.57966982  0.68002436  0.98657770    -0.96380
Zr39       Zr  0.50818131  0.50202174  0.88610295     2.21500
Zr40       Zr  0.50886656  0.50198136  0.08954465     2.11130
O41         O  0.58930255  0.50196850  0.03861522    -2.45070
O42         O  0.58875791  0.50201680  0.93650141    -0.77090
O43         O  0.50834471  0.42069762  0.03954380    -0.69290
O44         O  0.50823265  0.58337367  0.93638153    -2.30240
O45         O  0.50808325  0.42062779  0.93629807    -2.26450
O46         O  0.50844792  0.58335616  0.03955530    -0.71040
H47         H  0.39695084  0.50205837  0.06293379     0.80950
H48         H  0.50839483  0.61447590  0.91330724     0.82040
H49         H  0.62045383  0.50197181  0.06135724     0.84270
H50         H  0.50812496  0.38950822  0.91325273     0.81870
H51         H  0.45850514  0.69038628  0.96462644     0.44910
H52         H  0.55550306  0.68843193  0.01669896     0.43880
H53         H  0.69598604  0.54800930  0.97739935     0.43560
H54         H  0.69602156  0.44361300  0.01628457     0.41490
H55         H  0.55155734  0.31603802  0.01378908     0.44620
H56         H  0.45134369  0.31366105  0.95809541     0.39410
H57         H  0.32243559  0.45741629  0.96601410     0.45520
H58         H  0.32210295  0.55560142  0.01988666     0.41940
H59         H  0.69445158  0.38288471  0.99939690     0.46860
H60         H  0.39270251  0.31351039  0.98027854     0.45580
H61         H  0.31956890  0.61429413  0.99723662     0.45720
H62         H  0.61519514  0.69322260  0.99818141     0.46070
O63         O  0.41375595  0.91301566  0.37996218    -0.72800
O64         O  0.46053040  0.85036207  0.42769194    -0.51710
C65         C  0.42581915  0.86436394  0.39261971     0.80930
O66         O  0.62592852  0.09396518  0.38085561    -0.57400
O67         O  0.57827949  0.15645297  0.42799379    -0.50430
C68         C  0.61325047  0.14261586  0.39308541     0.72950
O69         O  0.62470520  0.91235166  0.37941833    -0.71960
O70         O  0.57746528  0.84998078  0.42715152    -0.52520
C71         C  0.61205493  0.86369749  0.39180411     0.78950
O72         O  0.41254083  0.09371081  0.38187293    -0.57100
O73         O  0.46023726  0.15631446  0.42876336    -0.50220
C74         C  0.42489671  0.14231872  0.39431813     0.75540
Zr75       Zr  0.44023498  0.00334428  0.40723468     2.54710
O76         O  0.44479490  0.00449453  0.31047398    -0.77670
O77         O  0.34276254  0.00439104  0.40837742    -0.91080
Zr78       Zr  0.59911417  0.00315175  0.40705314     2.64680
O79         O  0.59498512  0.00254435  0.31021643    -0.96040
O80         O  0.69656762  0.00360888  0.40807762    -0.78100
O81         O  0.51958106  0.95096432  0.40609736    -0.81460
O82         O  0.51968892  0.05543814  0.40615199    -2.16170
O83         O  0.41277007  0.09386943  0.59144774    -0.64850
O84         O  0.46067129  0.15654818  0.54483013    -0.49410
C85         C  0.42536417  0.14259509  0.57938646     0.73920
O86         O  0.62336329  0.91191070  0.59421564    -0.57750
O87         O  0.57697272  0.84959370  0.54568166    -0.49730
C88         C  0.61091295  0.86319767  0.58165399     0.75730
O89         O  0.62524168  0.09401907  0.59265923    -0.69150
O90         O  0.57798037  0.15659789  0.54530785    -0.47830
C91         C  0.61261628  0.14277228  0.58052248     0.77110
O92         O  0.41387529  0.91234202  0.59281935    -0.64480
O93         O  0.46074049  0.84981833  0.54499764    -0.51680
C94         C  0.42609283  0.86362525  0.58026475     0.75490
Zr95       Zr  0.43973958  0.00309135  0.56519119     2.77540
O96         O  0.43898454  0.00258394  0.66206979    -0.95230
O97         O  0.34252880  0.00275875  0.55846080    -0.76050
Zr98       Zr  0.59944299  0.00300165  0.56515229     2.70070
O99         O  0.60175006  0.00414074  0.66193621    -0.77300
O100        O  0.69653129  0.00157811  0.55689315    -0.96380
Zr101      Zr  0.51940215  0.90012423  0.48635389     2.21500
Zr102      Zr  0.51967716  0.10624701  0.48658830     2.11130
O103        O  0.51960605  0.05476798  0.56661489    -2.45070
O104        O  0.51952827  0.95120453  0.56643289    -0.77090
O105        O  0.43892142  0.05552007  0.48630943    -0.69290
O106        O  0.60038762  0.95086488  0.48613521    -2.30240
O107        O  0.43863504  0.95108379  0.48619187    -2.26450
O108        O  0.60050039  0.05545925  0.48620128    -0.71040
H109        H  0.51955033  0.07878636  0.37541572     0.80950
H110        H  0.63123677  0.92742629  0.48619757     0.82040
H111        H  0.51955957  0.07787497  0.59752177     0.84570
H112        H  0.40761798  0.92786482  0.48618876     0.81870
H113        H  0.70649325  0.97674407  0.43545246     0.44910
H114        H  0.70493226  0.03175990  0.53252564     0.43880
H115        H  0.56587030  0.99118436  0.67274805     0.43560
H116        H  0.46244450  0.03292892  0.67249916     0.41490
H117        H  0.33454303  0.02772350  0.52877995     0.44620
H118        H  0.33244804  0.97271682  0.42999846     0.39410
H119        H  0.47454703  0.97971402  0.30164895     0.45520
H120        H  0.57241175  0.03388335  0.30078705     0.41940
H121        H  0.40245148  0.01449890  0.67182813     0.46860
H122        H  0.33223773  0.99482537  0.37159057     0.45580
H123        H  0.63147879  0.01281750  0.29865024     0.45720
H124        H  0.70973129  0.01368134  0.59205577     0.46070
O125        O  0.92556231  0.60663131  0.37799606    -0.72800
O126        O  0.86333577  0.56024632  0.42651376    -0.51710
C127        C  0.87712657  0.59426633  0.39050247     0.80930
O128        O  0.10545979  0.39382102  0.38204913    -0.57400
O129        O  0.16759726  0.44227713  0.42856812    -0.50430
C130        C  0.15376130  0.40651379  0.39431688     0.72950
O131        O  0.92576385  0.39761194  0.37760532    -0.71960
O132        O  0.86353479  0.44405183  0.42603732    -0.52520
C133        C  0.87739897  0.41018640  0.38991806     0.78950
O134        O  0.10600642  0.61032344  0.38262498    -0.57100
O135        O  0.16794150  0.56158756  0.42914243    -0.50220
C136        C  0.15432226  0.59762434  0.39508460     0.75540
Zr137      Zr  0.01569667  0.58191847  0.40700985     2.54710
O138        O  0.01844480  0.57707080  0.31030001    -0.77670
O139        O  0.01535758  0.67995520  0.40780201    -0.91080
Zr140      Zr  0.01551789  0.42195803  0.40702855     2.64680
O141        O  0.01662861  0.42466673  0.31014479    -0.96040
O142        O  0.01474238  0.32392865  0.40928903    -0.78100
O143        O  0.96384276  0.50199541  0.40603015    -0.81460
O144        O  0.06749602  0.50191437  0.40599899    -2.16170
O145        O  0.10570360  0.60984483  0.59070123    -0.64850
O146        O  0.16790477  0.56112495  0.54450895    -0.49410
C147        C  0.15416248  0.59704742  0.57865025     0.73920
O148        O  0.92502844  0.39857146  0.59523149    -0.57750
O149        O  0.86301592  0.44425949  0.54589044    -0.49730
C150        C  0.87665429  0.41091172  0.58256240     0.75730
O151        O  0.10518904  0.39419245  0.59132482    -0.69150
O152        O  0.16753857  0.44237481  0.54475173    -0.47830
C153        C  0.15362972  0.40682780  0.57922619     0.77110
O154        O  0.92463702  0.60626439  0.59420311    -0.64480
O155        O  0.86268272  0.55997186  0.54534417    -0.51680
C156        C  0.87620945  0.59385877  0.58156027     0.75490
Zr157      Zr  0.01517179  0.58213248  0.56520542     2.77540
O158        O  0.01578738  0.58248941  0.66209802    -0.95230
O159        O  0.01355457  0.67992279  0.55898602    -0.76050
Zr160      Zr  0.01511452  0.42142679  0.56480069     2.70070
O161        O  0.01754864  0.41754119  0.66151515    -0.77300
O162        O  0.01229647  0.32389505  0.55540100    -0.96380
Zr163      Zr  0.91297704  0.50201027  0.48603305     2.21500
Zr164      Zr  0.11775504  0.50180098  0.48657087     2.11130
O165        O  0.06660268  0.50176007  0.56662675    -2.45070
O166        O  0.96376342  0.50180474  0.56605666    -0.77090
O167        O  0.06728437  0.58300084  0.48628130    -0.69290
O168        O  0.96316270  0.42042894  0.48587033    -2.30240
O169        O  0.96351696  0.58342121  0.48601342    -2.26450
O170        O  0.06741218  0.42051247  0.48607949    -0.71040
H171        H  0.09083972  0.50199943  0.37534849     0.80950
H172        H  0.93976253  0.38946441  0.48587644     0.82040
H173        H  0.08962201  0.50167408  0.59749530     0.84270
H174        H  0.94026676  0.61449184  0.48598952     0.81870
H175        H  0.98588598  0.31449180  0.43464143     0.44910
H176        H  0.04249167  0.31526656  0.53132228     0.43880
H177        H  0.00559403  0.45371609  0.67303604     0.43560
H178        H  0.04586089  0.55859424  0.67211230     0.41490
H179        H  0.03784634  0.68841545  0.52898374     0.44620
H180        H  0.98325585  0.68993030  0.42870515     0.39410
H181        H  0.99576506  0.54566296  0.30132042     0.45520
H182        H  0.04834682  0.44666217  0.30087560     0.41940
H183        H  0.02805604  0.61908868  0.67185822     0.46860
H184        H  0.00649609  0.69027332  0.37077814     0.45580
H185        H  0.02634927  0.38761082  0.29929390     0.45720
H186        H  0.02365322  0.31000503  0.59055828     0.46070
C187        C  0.75364816  0.33662338  0.31369493     0.05620
C188        C  0.72938629  0.35935688  0.26871723    -0.10530
C189        C  0.68307209  0.33594600  0.24736370     0.03120
C190        C  0.66125870  0.28974052  0.27086158    -0.09050
C191        C  0.68555959  0.26706132  0.31578304     0.05620
C192        C  0.73183378  0.29038583  0.33704509    -0.08470
H193        H  0.74576277  0.39569364  0.25115267     0.11210
H194        H  0.62489705  0.27215883  0.25492119     0.08740
H195        H  0.75008824  0.27334726  0.37240218     0.08590
C196        C  0.75215260  0.66776500  0.31548878     0.05620
C197        C  0.72788166  0.64461853  0.27068004    -0.10530
C198        C  0.68174549  0.66796352  0.24881796     0.03120
C199        C  0.66000338  0.71449727  0.27176336    -0.09050
C200        C  0.68419579  0.73765110  0.31653535     0.05620
C201        C  0.73032734  0.71434261  0.33828052    -0.08470
H202        H  0.74430785  0.60816068  0.25343512     0.11210
H203        H  0.62388211  0.73213023  0.25535484     0.08740
H204        H  0.74861016  0.73182140  0.37340445     0.08590
C205        C  0.68221064  0.33719649  0.72638052     0.05620
C206        C  0.66016909  0.29096001  0.70301304    -0.10530
C207        C  0.68395073  0.26836279  0.65767302     0.03120
C208        C  0.72991733  0.29195004  0.63584452    -0.09050
C209        C  0.75204205  0.33815610  0.65904669     0.05620
C210        C  0.72825722  0.36070249  0.70442226    -0.08470
H211        H  0.62411741  0.27320324  0.71947858     0.11210
H212        H  0.74785555  0.27496869  0.60029265     0.08740
H213        H  0.74489581  0.39692284  0.72194920     0.08590
C214        C  0.34760382  0.74134729  0.31924155     0.05620
C215        C  0.36877248  0.71860638  0.27282992    -0.10530
C216        C  0.34464111  0.67313504  0.25034840     0.03120
C217        C  0.29916221  0.65056036  0.27408234    -0.09050
C218        C  0.27793652  0.67334245  0.32048332     0.05620
C219        C  0.30208427  0.71883202  0.34301902    -0.08470
H220        H  0.40454183  0.73552399  0.25493053     0.11210
H221        H  0.28101896  0.61478515  0.25713035     0.08740
H222        H  0.28618153  0.73596520  0.37944298     0.08590
C223        C  0.34421218  0.67271295  0.72472222     0.05620
C224        C  0.36894786  0.71772377  0.70170841    -0.10530
C225        C  0.34851602  0.73993562  0.65462492     0.03120
C226        C  0.30312997  0.71718028  0.63071470    -0.09050
C227        C  0.27829672  0.67221546  0.65372516     0.05620
C228        C  0.29883200  0.65010159  0.70077665    -0.08470
H229        H  0.40453378  0.73475756  0.71980393     0.11210
H230        H  0.28770652  0.73386925  0.59390342     0.08740
H231        H  0.28017056  0.61479125  0.71814406     0.08590
C232        C  0.34269695  0.33114548  0.72615912     0.05620
C233        C  0.36775616  0.28655356  0.70274633    -0.10530
C234        C  0.34738895  0.26464064  0.65551826     0.03120
C235        C  0.30178975  0.28716539  0.63193897    -0.09050
C236        C  0.27670513  0.33167899  0.65537001     0.05620
C237        C  0.29705678  0.35353197  0.70257347    -0.08470
H238        H  0.40363058  0.26978145  0.72050889     0.11210
H239        H  0.28652129  0.27079603  0.59492173     0.08740
H240        H  0.27824055  0.38863979  0.72016058     0.08590
C241        C  0.68116518  0.66674464  0.72515172     0.05620
C242        C  0.65893543  0.71319512  0.70233744    -0.10530
C243        C  0.68234191  0.73629365  0.65701574     0.03120
C244        C  0.72817779  0.71289705  0.63458793    -0.09050
C245        C  0.75057402  0.66646625  0.65721884     0.05620
C246        C  0.72704679  0.64346562  0.70256450    -0.08470
H247        H  0.62309639  0.73085456  0.71933793     0.11210
H248        H  0.74592003  0.73032706  0.59914917     0.08740
H249        H  0.74391138  0.60718282  0.71974124     0.08590
C250        C  0.34615065  0.26327186  0.31854722     0.05620
C251        C  0.36732465  0.28546241  0.27188408    -0.10530
C252        C  0.34284522  0.33033613  0.24863468     0.03120
C253        C  0.29698454  0.35272512  0.27172511    -0.09050
C254        C  0.27589059  0.33045514  0.31839477     0.05620
C255        C  0.30030449  0.28559109  0.34170357    -0.08470
H256        H  0.40350258  0.26881496  0.25457454     0.11210
H257        H  0.27870964  0.38821214  0.25432302     0.08740
H258        H  0.28454149  0.26901537  0.37845102     0.08590
C259        C  0.23192331  0.35681582  0.62938482    -0.10780
C260        C  0.19568837  0.37914720  0.60672052    -0.12340
C261        C  0.23318560  0.64725245  0.62787369    -0.10780
C262        C  0.19651758  0.62497395  0.60569792    -0.12340
C263        C  0.19661488  0.62581326  0.36851216    -0.10780
C264        C  0.23305460  0.64833691  0.34637750    -0.12340
C265        C  0.19566432  0.37859345  0.36715815    -0.10780
C266        C  0.23147554  0.35588750  0.34438105    -0.12340
C267        C  0.79640597  0.64136144  0.63251187    -0.10780
C268        C  0.83356711  0.62005082  0.61006041    -0.12340
C269        C  0.83427677  0.38517609  0.61161359    -0.10780
C270        C  0.79752573  0.36375812  0.63448035    -0.12340
C271        C  0.79894127  0.36238551  0.33808660    -0.10780
C272        C  0.83534851  0.38409882  0.36101669    -0.12340
C273        C  0.83481047  0.62075949  0.36210018    -0.10780
C274        C  0.79789376  0.64241501  0.33977298    -0.12340
C275        C  0.63895868  0.18540761  0.60892288    -0.10780
C276        C  0.65985508  0.22251336  0.63193814    -0.12340
C277        C  0.37467722  0.22074667  0.62975211    -0.10780
C278        C  0.39776289  0.18486931  0.60698340    -0.12340
C279        C  0.39688147  0.18433866  0.36724494    -0.10780
C280        C  0.37335673  0.21975939  0.34451860    -0.12340
C281        C  0.66135373  0.22169649  0.34192112    -0.10780
C282        C  0.64000789  0.18504415  0.36506316    -0.12340
C283        C  0.39846302  0.82109948  0.60762536    -0.10780
C284        C  0.37541116  0.78463745  0.62962047    -0.12340
C285        C  0.63710158  0.82026521  0.60992024    -0.10780
C286        C  0.65813118  0.78269918  0.63217915    -0.12340
C287        C  0.66018421  0.78378584  0.34170402    -0.10780
C288        C  0.63880814  0.82102045  0.36398915    -0.12340
C289        C  0.39777018  0.82218300  0.36567696    -0.10780
C290        C  0.37431861  0.78600032  0.34397519    -0.12340
C291        C  0.65621480  0.36080344  0.20310039    -0.10780
C292        C  0.63232803  0.38216154  0.16719180    -0.12340
C293        C  0.65535966  0.64308597  0.20417129    -0.10780
C294        C  0.63199351  0.62180748  0.16780884    -0.12340
C295        C  0.36840132  0.64783289  0.20472088    -0.10780
C296        C  0.38982196  0.62538773  0.16799980    -0.12340
C297        C  0.38902079  0.37862108  0.16727912    -0.10780
C298        C  0.36710305  0.35581842  0.20344559    -0.12340
C299        C  0.63286079  0.62042192  0.80724277    -0.10780
C300        C  0.65561017  0.64185327  0.77045876    -0.12340
C301        C  0.63282222  0.38340999  0.80768049    -0.10780
C302        C  0.65604544  0.36193788  0.77129588    -0.12340
C303        C  0.38694963  0.37923420  0.80893199    -0.10780
C304        C  0.36590777  0.35631359  0.77223106    -0.12340
C305        C  0.38786760  0.62518794  0.80829284    -0.10780
C306        C  0.36715539  0.64778387  0.77115036    -0.12340
loop_ 
_geom_bond_atom_site_label_1 
_geom_bond_atom_site_label_2 
_geom_bond_distance 
_geom_bond_site_symmetry_2 
_ccdc_geom_bond_type 
O1          Zr13   2.439       .  S
O1            C3   1.286       .  A
O2          Zr39   2.425       .  S
O2            C3   1.285       .  A
C3          C303   1.433       .  S
O4          Zr16   2.441   1_554  S
O4            C6   1.286       .  A
O5          Zr40   2.418       .  S
O5            C6   1.284       .  A
C6          C296   1.431       .  S
O7          Zr16   2.444       .  S
O7            C9   1.287       .  A
O8          Zr39   2.423       .  S
O8            C9   1.285       .  A
C9          C305   1.435       .  S
O10         Zr13   2.435   1_554  S
O10          C12   1.285       .  A
O11         Zr40   2.421       .  S
O11          C12   1.284       .  A
C12         C297   1.429       .  S
Zr13         O14   2.434       .  S
Zr13         O15   2.435       .  S
Zr13         O19   2.373       .  S
Zr13         O20   2.371   1_556  S
Zr13         O43   2.374   1_556  S
Zr13         O45   2.373       .  S
O14          H57   0.990       .  S
O15          H56   0.990       .  S
O15          H60   0.990       .  S
Zr16         O17   2.436       .  S
Zr16         O18   2.435       .  S
Zr16         O20   2.372   1_556  S
Zr16         O19   2.373       .  S
Zr16         O44   2.374       .  S
Zr16         O46   2.375   1_556  S
O17          H58   0.990   1_556  S
O17          H61   0.990       .  S
O18          H51   0.990       .  S
O19         Zr39   2.380       .  S
O20         Zr40   2.383       .  S
O20          H47   0.966       .  S
O21         Zr33   2.444   1_554  S
O21          C23   1.286       .  A
O22         Zr40   2.421       .  S
O22          C23   1.284       .  A
C23         C292   1.433       .  S
O24         Zr36   2.449       .  S
O24          C26   1.288       .  A
O25         Zr39   2.424       .  S
O25          C26   1.285       .  A
C26         C299   1.439       .  S
O27         Zr36   2.448   1_554  S
O27          C29   1.288       .  A
O28         Zr40   2.421       .  S
O28          C29   1.284       .  A
C29         C294   1.436       .  S
O30         Zr33   2.444       .  S
O30          C32   1.287       .  A
O31         Zr39   2.424       .  S
O31          C32   1.285       .  A
C32         C301   1.437       .  S
Zr33         O34   2.435       .  S
Zr33         O35   2.435       .  S
Zr33         O41   2.372   1_556  S
Zr33         O42   2.374       .  S
Zr33         O45   2.370       .  S
Zr33         O43   2.372   1_556  S
O34          H54   0.990   1_556  S
O34          H59   0.990       .  S
O35          H55   0.990   1_556  S
Zr36         O37   2.433       .  S
Zr36         O38   2.435       .  S
Zr36         O42   2.374       .  S
Zr36         O41   2.372   1_556  S
Zr36         O46   2.372   1_556  S
Zr36         O44   2.370       .  S
O37          H53   0.990       .  S
O38          H52   0.990   1_556  S
O38          H62   0.990       .  S
Zr39         O42   2.379       .  S
Zr39         O44   2.383       .  S
Zr39         O45   2.383       .  S
Zr40         O41   2.382       .  S
Zr40         O43   2.378       .  S
Zr40         O46   2.380       .  S
O41          H49   0.966       .  S
O44          H48   0.966       .  S
O45          H50   0.966       .  S
O63         Zr75   2.437   1_565  S
O63          C65   1.285       .  A
O64        Zr101   2.422       .  S
O64          C65   1.285       .  A
C65         C289   1.431       .  S
O66         Zr78   2.443       .  S
O66          C68   1.286       .  A
O67        Zr102   2.421       .  S
O67          C68   1.285       .  A
C68         C282   1.433       .  S
O69         Zr78   2.445   1_565  S
O69          C71   1.287       .  A
O70        Zr101   2.422       .  S
O70          C71   1.285       .  A
C71         C288   1.435       .  S
O72         Zr75   2.434       .  S
O72          C74   1.285       .  A
O73        Zr102   2.422       .  S
O73          C74   1.285       .  A
C74         C279   1.429       .  S
Zr75         O76   2.434       .  S
Zr75         O77   2.435       .  S
Zr75         O81   2.371   1_545  S
Zr75         O82   2.369       .  S
Zr75        O105   2.373       .  S
Zr75        O107   2.371   1_545  S
O76         H119   0.990   1_545  S
O77         H118   0.990   1_545  S
O77         H122   0.990   1_545  S
Zr78         O79   2.436       .  S
Zr78         O80   2.435       .  S
Zr78         O82   2.372       .  S
Zr78         O81   2.372   1_545  S
Zr78        O106   2.374   1_545  S
Zr78        O108   2.376       .  S
O79         H120   0.990       .  S
O79         H123   0.990       .  S
O80         H113   0.990   1_545  S
O81        Zr101   2.379       .  S
O82        Zr102   2.383       .  S
O82         H109   0.966       .  S
O83         Zr95   2.444       .  S
O83          C85   1.287       .  A
O84        Zr102   2.424       .  S
O84          C85   1.285       .  A
C85         C278   1.435       .  S
O86         Zr98   2.451   1_565  S
O86          C88   1.289       .  A
O87        Zr101   2.422       .  S
O87          C88   1.285       .  A
C88         C285   1.439       .  S
O89         Zr98   2.450       .  S
O89          C91   1.288       .  A
O90        Zr102   2.422       .  S
O90          C91   1.285       .  A
C91         C275   1.437       .  S
O92         Zr95   2.445   1_565  S
O92          C94   1.287       .  A
O93        Zr101   2.424       .  S
O93          C94   1.285       .  A
C94         C283   1.437       .  S
Zr95         O96   2.435       .  S
Zr95         O97   2.434       .  S
Zr95        O103   2.372       .  S
Zr95        O104   2.374   1_545  S
Zr95        O107   2.369   1_545  S
Zr95        O105   2.372       .  S
O96         H116   0.990       .  S
O96         H121   0.990       .  S
O97         H117   0.990       .  S
Zr98         O99   2.433       .  S
Zr98        O100   2.434       .  S
Zr98        O104   2.375   1_545  S
Zr98        O103   2.373       .  S
Zr98        O108   2.374       .  S
Zr98        O106   2.371   1_545  S
O99         H115   0.990   1_545  S
O100        H114   0.990       .  S
O100        H124   0.990       .  S
Zr101       O104   2.379       .  S
Zr101       O106   2.383       .  S
Zr101       O107   2.382       .  S
Zr102       O103   2.383       .  S
Zr102       O105   2.378       .  S
Zr102       O108   2.381       .  S
O103        H111   0.966       .  S
O106        H110   0.966       .  S
O107        H112   0.966       .  S
O125       Zr137   2.445   1_655  S
O125        C127   1.287       .  A
O126       Zr163   2.423       .  S
O126        C127   1.285       .  A
C127        C273   1.435       .  S
O128       Zr140   2.435       .  S
O128        C130   1.285       .  A
O129       Zr164   2.421       .  S
O129        C130   1.284       .  A
C130        C265   1.429       .  S
O131       Zr140   2.437   1_655  S
O131        C133   1.286       .  A
O132       Zr163   2.423       .  S
O132        C133   1.285       .  A
C133        C272   1.432       .  S
O134       Zr137   2.441       .  S
O134        C136   1.286       .  A
O135       Zr164   2.420       .  S
O135        C136   1.284       .  A
C136        C263   1.432       .  S
Zr137       O138   2.434       .  S
Zr137       O139   2.435       .  S
Zr137       O143   2.370   1_455  S
Zr137       O144   2.372       .  S
Zr137       O167   2.373       .  S
Zr137       O169   2.375   1_455  S
O138        H181   0.990   1_455  S
O139        H180   0.990   1_455  S
O139        H184   0.990       .  S
Zr140       O141   2.436       .  S
Zr140       O142   2.436       .  S
Zr140       O144   2.373       .  S
Zr140       O143   2.371   1_455  S
Zr140       O168   2.374   1_455  S
Zr140       O170   2.373       .  S
O141        H182   0.990       .  S
O141        H185   0.990       .  S
O142        H175   0.990   1_455  S
O143       Zr163   2.378       .  S
O144       Zr164   2.383       .  S
O144        H171   0.966       .  S
O145       Zr157   2.449       .  S
O145        C147   1.288       .  A
O146       Zr164   2.421       .  S
O146        C147   1.285       .  A
C147        C262   1.436       .  S
O148       Zr160   2.443   1_655  S
O148        C150   1.287       .  A
O149       Zr163   2.424       .  S
O149        C150   1.285       .  A
C150        C269   1.436       .  S
O151       Zr160   2.443       .  S
O151        C153   1.286       .  A
O152       Zr164   2.422       .  S
O152        C153   1.285       .  A
C153        C260   1.433       .  S
O154       Zr157   2.450   1_655  S
O154        C156   1.288       .  A
O155       Zr163   2.423       .  S
O155        C156   1.285       .  A
C156        C268   1.439       .  S
Zr157       O158   2.435       .  S
Zr157       O159   2.434       .  S
Zr157       O165   2.374       .  S
Zr157       O166   2.373   1_455  S
Zr157       O169   2.373   1_455  S
Zr157       O167   2.372       .  S
O158        H178   0.990       .  S
O158        H183   0.990       .  S
O159        H179   0.990       .  S
Zr160       O161   2.433       .  S
Zr160       O162   2.435       .  S
Zr160       O166   2.373   1_455  S
Zr160       O165   2.374       .  S
Zr160       O170   2.370       .  S
Zr160       O168   2.371   1_455  S
O161        H177   0.990       .  S
O162        H176   0.990       .  S
O162        H186   0.990       .  S
Zr163       O166   2.378       .  S
Zr163       O168   2.383       .  S
Zr163       O169   2.384       .  S
Zr164       O165   2.383       .  S
Zr164       O167   2.379       .  S
Zr164       O170   2.378       .  S
O165        H173   0.966       .  S
O168        H172   0.966       .  S
O169        H174   0.966       .  S
C187        C271   1.437       .  S
C187        C188   1.401       .  A
C187        C192   1.400       .  A
C188        C189   1.402       .  A
C188        H193   1.085       .  S
C189        C291   1.438       .  S
C189        C190   1.401       .  A
C190        C191   1.400       .  A
C190        H194   1.085       .  S
C191        C281   1.437       .  S
C191        C192   1.399       .  A
C192        H195   1.085       .  S
C196        C274   1.441       .  S
C196        C197   1.402       .  A
C196        C201   1.401       .  A
C197        C198   1.403       .  A
C197        H202   1.085       .  S
C198        C293   1.441       .  S
C198        C199   1.401       .  A
C199        C200   1.401       .  A
C199        H203   1.085       .  S
C200        C287   1.440       .  S
C200        C201   1.401       .  A
C201        H204   1.085       .  S
C205        C302   1.442       .  S
C205        C206   1.403       .  A
C205        C210   1.403       .  A
C206        C207   1.402       .  A
C206        H211   1.085       .  S
C207        C276   1.441       .  S
C207        C208   1.401       .  A
C208        C209   1.401       .  A
C208        H212   1.085       .  S
C209        C270   1.441       .  S
C209        C210   1.402       .  A
C210        H213   1.085       .  S
C214        C290   1.436       .  S
C214        C215   1.399       .  A
C214        C219   1.401       .  A
C215        C216   1.399       .  A
C215        H220   1.085       .  S
C216        C295   1.436       .  S
C216        C217   1.400       .  A
C217        C218   1.400       .  A
C217        H221   1.085       .  S
C218        C264   1.437       .  S
C218        C219   1.401       .  A
C219        H222   1.085       .  S
C223        C306   1.440       .  S
C223        C224   1.402       .  A
C223        C228   1.401       .  A
C224        C225   1.402       .  A
C224        H229   1.085       .  S
C225        C284   1.442       .  S
C225        C226   1.402       .  A
C226        C227   1.402       .  A
C226        H230   1.085       .  S
C227        C261   1.441       .  S
C227        C228   1.401       .  A
C228        H231   1.085       .  S
C232        C304   1.438       .  S
C232        C233   1.402       .  A
C232        C237   1.400       .  A
C233        C234   1.402       .  A
C233        H238   1.085       .  S
C234        C277   1.440       .  S
C234        C235   1.401       .  A
C235        C236   1.401       .  A
C235        H239   1.085       .  S
C236        C259   1.438       .  S
C236        C237   1.400       .  A
C237        H240   1.085       .  S
C241        C300   1.444       .  S
C241        C242   1.403       .  A
C241        C246   1.403       .  A
C242        C243   1.403       .  A
C242        H247   1.085       .  S
C243        C286   1.444       .  S
C243        C244   1.402       .  A
C244        C245   1.402       .  A
C244        H248   1.085       .  S
C245        C267   1.444       .  S
C245        C246   1.403       .  A
C246        H249   1.084       .  S
C250        C280   1.434       .  S
C250        C251   1.399       .  A
C250        C255   1.399       .  A
C251        C252   1.399       .  A
C251        H256   1.085       .  S
C252        C298   1.434       .  S
C252        C253   1.399       .  A
C253        C254   1.399       .  A
C253        H257   1.085       .  S
C254        C266   1.434       .  S
C254        C255   1.399       .  A
C255        H258   1.085       .  S
C259        C260   1.205       .  T
C261        C262   1.207       .  T
C263        C264   1.204       .  T
C265        C266   1.202       .  T
C267        C268   1.208       .  T
C269        C270   1.206       .  T
C271        C272   1.204       .  T
C273        C274   1.206       .  T
C275        C276   1.207       .  T
C277        C278   1.206       .  T
C279        C280   1.202       .  T
C281        C282   1.204       .  T
C283        C284   1.207       .  T
C285        C286   1.208       .  T
C287        C288   1.206       .  T
C289        C290   1.204       .  T
C291        C292   1.205       .  T
C293        C294   1.206       .  T
C295        C296   1.203       .  T
C297        C298   1.202       .  T
C299        C300   1.208       .  T
C301        C302   1.207       .  T
C303        C304   1.205       .  T
C305        C306   1.206       .  T
