geometry optimzed in LAMMPS
_audit_creation_date              2020-12-01 
_audit_creation_method            'lammps2cif' 
_symmetry_space_group_name_H-M    'P1' 
_symmetry_Int_Tables_number       1 
_symmetry_cell_setting            triclinic 
loop_ 
_symmetry_equiv_pos_as_xyz 
  x,y,z 
_cell_length_a                    23.55175209 
_cell_length_b                    23.287340753780175 
_cell_length_c                    23.25509292469178 
_cell_angle_alpha                 90.89493493873182 
_cell_angle_beta                  89.75878578335063 
_cell_angle_gamma                 88.34384882073505 
loop_ 
_atom_site_label 
_atom_site_type_symbol 
_atom_site_fract_x 
_atom_site_fract_y 
_atom_site_fract_z 
_atom_site_charge 
C1          C  0.75266649  0.74570901  0.66886362     0.04800
C2          C  0.77420525  0.69589859  0.69510908    -0.11300
C3          C  0.74301337  0.66952572  0.73836485     0.02300
C4          C  0.69138471  0.69505783  0.75738607    -0.09900
C5          C  0.67121067  0.74678650  0.73364711     0.04800
C6          C  0.70185182  0.77177568  0.68921260    -0.09300
H7          H  0.81365814  0.67592056  0.67969463     0.10400
H8          H  0.66780511  0.67562808  0.79176909     0.07900
H9          H  0.68573259  0.81100157  0.66984194     0.07800
C10         C  0.72635222  0.26335627  0.72705705     0.04800
C11         C  0.75838843  0.23261211  0.68526102    -0.11300
C12         C  0.73289313  0.19147197  0.64984141     0.02300
C13         C  0.67541318  0.17894800  0.65869320    -0.09900
C14         C  0.64389274  0.20663124  0.70294739     0.04800
C15         C  0.66939865  0.24950625  0.73633155    -0.09300
H16         H  0.80237931  0.24305590  0.67803851     0.10400
H17         H  0.65575299  0.14625183  0.63246891     0.07900
H18         H  0.64485570  0.27232447  0.76940524     0.07800
C19         C  0.18809164  0.26624575  0.73034058     0.04800
C20         C  0.16320135  0.23205396  0.68779186    -0.11300
C21         C  0.19638943  0.19287534  0.65477846     0.02300
C22         C  0.25437865  0.18467811  0.66745732    -0.09900
C23         C  0.27942786  0.21659003  0.71195448     0.04800
C24         C  0.24642271  0.25833354  0.74213396    -0.09300
H25         H  0.11848715  0.23844782  0.67794269     0.10400
H26         H  0.27987645  0.15350008  0.64280570     0.07900
H27         H  0.26580200  0.28338483  0.77595967     0.07800
C28         C  0.21634776  0.63422025  0.72500074     0.04800
C29         C  0.27209000  0.64856143  0.73879621    -0.11300
C30         C  0.29439094  0.69998615  0.71996110     0.02300
C31         C  0.26184282  0.73561088  0.68394167    -0.09900
C32         C  0.20708038  0.72012363  0.66694945     0.04800
C33         C  0.18361156  0.67049400  0.68953713    -0.09300
H34         H  0.29762359  0.62039085  0.76557159     0.10400
H35         H  0.27987745  0.77449406  0.66762923     0.07900
H36         H  0.14159760  0.65802721  0.67619948     0.07800
C37         C  0.20074832  0.72946746  0.26668437     0.04800
C38         C  0.17777529  0.67942679  0.24330887    -0.11300
C39         C  0.20976804  0.64478168  0.20439464     0.02300
C40         C  0.26401183  0.66158777  0.18760855    -0.09900
C41         C  0.28531375  0.71383745  0.20729719     0.04800
C42         C  0.25371014  0.74748784  0.24714579    -0.09300
H43         H  0.13718785  0.66507644  0.25889364     0.10400
H44         H  0.28922177  0.63447968  0.15841685     0.07900
H45         H  0.27142149  0.78636367  0.26493456     0.07800
C46         C  0.71345593  0.73176420  0.28244992     0.04800
C47         C  0.66889621  0.75955909  0.25308148    -0.11300
C48         C  0.65779330  0.74538054  0.19525644     0.02300
C49         C  0.69106318  0.70253762  0.16725595    -0.09900
C50         C  0.73282502  0.67141962  0.19738610     0.04800
C51         C  0.74472415  0.68698315  0.25466139    -0.09300
H52         H  0.64386038  0.79326174  0.27469718     0.10400
H53         H  0.68170607  0.69065383  0.12308212     0.07900
H54         H  0.77775113  0.66380526  0.27777644     0.07800
C55         C  0.73424158  0.26085627  0.18884892     0.04800
C56         C  0.69144715  0.23262811  0.15875836    -0.11300
C57         C  0.65969232  0.19074944  0.18583455     0.02300
C58         C  0.67322618  0.17467086  0.24217879    -0.09900
C59         C  0.71827052  0.19983304  0.27119909     0.04800
C60         C  0.74845177  0.24337600  0.24473946    -0.09300
H61         H  0.68010697  0.24616542  0.11579436     0.10400
H62         H  0.64918305  0.14193023  0.26321565     0.07900
H63         H  0.78201390  0.26435441  0.26801261     0.07800
C64         C  0.75301128  0.51464410  0.79136963     0.81900
N65         N  0.72841205  0.46557792  0.77375928    -0.76400
C66         C  0.74966171  0.41367866  0.79042872     0.84300
N67         N  0.79485838  0.41091612  0.82676019    -0.76400
C68         C  0.81858324  0.46020982  0.84596361     0.84400
N69         N  0.79794037  0.51178131  0.82756445    -0.78100
C70         C  0.12436756  0.51514538  0.78368577     0.81900
N71         N  0.15420572  0.46663418  0.76858119    -0.76400
C72         C  0.13872427  0.41476418  0.78774224     0.84300
N73         N  0.09329923  0.41132021  0.82399223    -0.76400
C74         C  0.06372119  0.46023211  0.84034439     0.84400
N75         N  0.07922195  0.51180130  0.81960357    -0.78100
C76         C  0.78324787  0.51561635  0.16838496     0.81900
N77         N  0.76819342  0.46535461  0.19198709    -0.76400
C78         C  0.78310220  0.41440736  0.16633218     0.84300
N79         N  0.81471331  0.41372190  0.11728374    -0.76400
C80         C  0.83097107  0.46381744  0.09380985     0.84400
N81         N  0.81481436  0.51477789  0.11925399    -0.78100
C82         C  0.11822709  0.52364490  0.14681388     0.81900
N83         N  0.07927550  0.51941382  0.10434782    -0.76400
C84         C  0.06315245  0.46703871  0.08485286     0.84300
N85         N  0.08559547  0.41859352  0.10880172    -0.76400
C86         C  0.12401257  0.42272304  0.15213098     0.84400
N87         N  0.14016437  0.47520319  0.17083359    -0.78100
O88         O  0.88309326  0.50607274  0.90748832    -0.70100
O89         O  0.99979068  0.50949768  0.01840459    -0.70300
O90         O  0.99663665  0.50615987  0.90314393    -0.70200
O91         O  0.88659710  0.50892932  0.02294555    -0.70200
O92         O  0.88874363  0.41556358  0.02291457    -0.70100
O93         O  0.00128168  0.41286222  0.90455541    -0.70200
O94         O  0.00264625  0.41618970  0.02068271    -0.70100
O95         O  0.88639379  0.41269836  0.90678076    -0.70300
V96         V  0.94156898  0.50572388  0.96285377     1.35200
V97         V  0.94464758  0.41602983  0.96358136     1.35200
C98         C  0.86477862  0.45919789  0.88818072     0.79100
C99         C  0.02039911  0.46378253  0.03926621     0.79200
C100        C  0.01832797  0.45932730  0.88400353     0.79100
C101        C  0.86970044  0.46271295  0.04404358     0.79000
C102        C  0.51758815  0.77619978  0.78260857     0.81900
N103        N  0.51873129  0.82062342  0.82133655    -0.76400
C104        C  0.46938968  0.84684940  0.83940356     0.84300
N105        N  0.41935583  0.82961138  0.81757315    -0.76400
C106        C  0.41784063  0.78544514  0.77920951     0.84400
N107        N  0.46700218  0.75810805  0.76228901    -0.78100
C108        C  0.41459602  0.14068707  0.76646978     0.81900
N109        N  0.46281498  0.16867067  0.75295737    -0.76400
C110        C  0.51182373  0.15660061  0.78199433     0.84300
N111        N  0.51221793  0.11731666  0.82445638    -0.76400
C112        C  0.46451235  0.08911156  0.83755937     0.84400
N113        N  0.41593015  0.10072542  0.80832201    -0.78100
C114        C  0.40734602  0.80173262  0.15024122     0.81900
N115        N  0.41115967  0.83882650  0.10624625    -0.76400
C116        C  0.46264985  0.85490137  0.08670885     0.84300
N117        N  0.51082598  0.83444979  0.11239782    -0.76400
C118        C  0.50708460  0.79794888  0.15743103     0.84400
N119        N  0.45534364  0.78170185  0.17599148    -0.78100
C120        C  0.40814155  0.14729411  0.15343792     0.81900
N121        N  0.45730300  0.16322835  0.17818204    -0.76400
C122        C  0.50799797  0.14519979  0.15581615     0.84300
N123        N  0.50957574  0.10936014  0.10919160    -0.76400
C124        C  0.46041334  0.09207753  0.08485355     0.84400
N125        N  0.40964844  0.11141076  0.10681372    -0.78100
O126        O  0.41687325  0.03046834  0.01698468    -0.70100
O127        O  0.42199895  0.91234279  0.90300643    -0.70300
O128        O  0.41911199  0.91566627  0.01838152    -0.70200
O129        O  0.41928177  0.02688594  0.90151769    -0.70200
O130        O  0.51153675  0.02734061  0.90395126    -0.70100
O131        O  0.51141268  0.91352741  0.02003137    -0.70200
O132        O  0.51431501  0.91167459  0.90385519    -0.70100
O133        O  0.50917443  0.02877762  0.01949336    -0.70300
V134        V  0.42119095  0.97127713  0.95999687     1.35200
V135        V  0.50988877  0.97034314  0.96171702     1.35200
C136        C  0.46220325  0.04919240  0.03812662     0.79100
C137        C  0.46884097  0.89224317  0.88372052     0.79200
C138        C  0.46485943  0.89605945  0.03957784     0.79100
C139        C  0.46527075  0.04611946  0.88288831     0.79000
C140        C  0.18016811  0.27050446  0.18292736     0.04800
C141        C  0.16885372  0.25791235  0.24077282    -0.11300
C142        C  0.19785175  0.21229989  0.26755466     0.02300
C143        C  0.24056165  0.18140961  0.23718353    -0.09900
C144        C  0.25367389  0.19513626  0.18018704     0.04800
C145        C  0.22159444  0.23791508  0.15239391    -0.09300
H146        H  0.13663645  0.28273528  0.26448039     0.10400
H147        H  0.26486731  0.14775113  0.25847967     0.07900
H148        H  0.23174623  0.24873561  0.10844777     0.07800
C149        C  0.79617844  0.78285811  0.41451315     0.81900
N150        N  0.76751013  0.77002618  0.46331209    -0.76400
C151        C  0.78496164  0.79088321  0.51513858     0.84300
N152        N  0.82998183  0.82618218  0.51777668    -0.76400
C153        C  0.85766627  0.84016895  0.46885731     0.84400
N154        N  0.84111767  0.81769676  0.41767771    -0.78100
C155        C  0.17669591  0.78689285  0.52100188     0.81900
N156        N  0.20039662  0.77048608  0.46995347    -0.76400
C157        C  0.17570070  0.78570397  0.41982822     0.84300
N158        N  0.12784599  0.81948036  0.42072627    -0.76400
C159        C  0.10455850  0.83774245  0.47165206     0.84400
N160        N  0.12870246  0.82090338  0.52203937    -0.78100
C161        C  0.77984091  0.13526211  0.50049655     0.81900
N162        N  0.76583200  0.15460229  0.44750496    -0.76400
C163        C  0.79713795  0.13803616  0.40070079     0.84300
N164        N  0.84170923  0.10062021  0.40687356    -0.76400
C165        C  0.85549164  0.07984779  0.45940304     0.84400
N166        N  0.82488093  0.09774530  0.50653993    -0.78100
C167        C  0.16575427  0.13681851  0.50235672     0.81900
N168        N  0.18340286  0.15190440  0.44905169    -0.76400
C169        C  0.15975604  0.12816308  0.40149018     0.84300
N170        N  0.11885477  0.08906827  0.40734516    -0.76400
C171        C  0.10012369  0.07444913  0.46021083     0.84400
N172        N  0.12368016  0.09826676  0.50788500    -0.78100
O173        O  0.03689228  0.89630049  0.42369665    -0.70100
O174        O  0.92219003  0.01331996  0.41801598    -0.70300
O175        O  0.03577852  0.01057136  0.41868738    -0.70200
O176        O  0.92333901  0.89852283  0.42265441    -0.70200
O177        O  0.92143163  0.90340588  0.51606817    -0.70100
O178        O  0.03522933  0.01684858  0.51204233    -0.70200
O179        O  0.92010648  0.01889088  0.51137706    -0.70100
O180        O  0.03628455  0.90148001  0.51710458    -0.70300
V181        V  0.97945333  0.95478294  0.42273532     1.35200
V182        V  0.97826878  0.96004748  0.51247560     1.35200
C183        C  0.05678396  0.87958324  0.47112460     0.79100
C184        C  0.90132364  0.03585666  0.46345894     0.79200
C185        C  0.05515531  0.03240532  0.46427787     0.79100
C186        C  0.90296730  0.88201383  0.46964501     0.79000
C187        C  0.18418359  0.19795018  0.32770465    -0.14800
C188        C  0.17838823  0.14323033  0.34343068    -0.29900
H189        H  0.17422671  0.23264632  0.35821579     0.14300
H190        H  0.18187966  0.10895295  0.31125581     0.14800
C191        C  0.35430989  0.16772645  0.17963566    -0.14800
C192        C  0.30457858  0.16921707  0.15164543    -0.29900
H193        H  0.35636512  0.18550056  0.22304740     0.16400
H194        H  0.30266263  0.15689342  0.10647957     0.14800
C195        C  0.14769457  0.37138677  0.18051950    -0.14800
C196        C  0.15125750  0.31954174  0.15461420    -0.29900
H197        H  0.16622438  0.37722938  0.22286403     0.14300
H198        H  0.13795296  0.31449105  0.11019262     0.14800
C199        C  0.61000186  0.16687368  0.15636745    -0.14800
C200        C  0.56018715  0.16355243  0.18410310    -0.29900
H201        H  0.61275527  0.15726824  0.11052234     0.14300
H202        H  0.55651790  0.17881434  0.22844206     0.14800
C203        C  0.76051531  0.31127116  0.16280152    -0.14800
C204        C  0.76475699  0.36080013  0.19267851    -0.29900
H205        H  0.76995216  0.30992584  0.11700941     0.14300
H206        H  0.74993690  0.36330452  0.23700443     0.14800
C207        C  0.73187462  0.18137983  0.33001928    -0.14800
C208        C  0.78376929  0.16058056  0.34331249    -0.29900
H209        H  0.69747040  0.17986297  0.36118301     0.14300
H210        H  0.81650435  0.15739656  0.31024630     0.14800
C211        C  0.76057212  0.62025920  0.16948455    -0.14800
C212        C  0.76478915  0.57002421  0.19702607    -0.29900
H213        H  0.77073974  0.62181830  0.12393937     0.14300
H214        H  0.74934201  0.56763294  0.24098628     0.14800
C215        C  0.60969178  0.77277741  0.16426505    -0.14800
C216        C  0.55786559  0.77694837  0.18831336    -0.29900
H217        H  0.61540610  0.78380373  0.11936008     0.14300
H218        H  0.55156400  0.76048733  0.23136799     0.14800
C219        C  0.72698939  0.75009718  0.34206178    -0.14800
C220        C  0.78084387  0.75849689  0.35801440    -0.29900
H221        H  0.69234680  0.76237224  0.37120336     0.14300
H222        H  0.81480645  0.75214167  0.32651578     0.14800
C223        C  0.18967788  0.58823947  0.18506753    -0.14800
C224        C  0.13649981  0.58057948  0.16654228    -0.29900
H225        H  0.22042904  0.55256770  0.18310517     0.14300
H226        H  0.10710410  0.61713312  0.16298754     0.14800
C227        C  0.34213494  0.73124547  0.18851424    -0.14800
C228        C  0.35115456  0.78464822  0.17040691    -0.29900
H229        H  0.37617502  0.69881609  0.18607291     0.14300
H230        H  0.31578411  0.81536491  0.16716528     0.14800
C231        C  0.17281482  0.75822897  0.31673350    -0.14800
C232        C  0.20219013  0.76579927  0.36550049    -0.29900
H233        H  0.12711871  0.76607547  0.31622025     0.14300
H234        H  0.24664260  0.75194948  0.36696061     0.14800
C235        C  0.19551446  0.57865200  0.74461069    -0.14800
C236        C  0.14199587  0.57133225  0.76265231    -0.29900
H237        H  0.22649712  0.54340458  0.74767345     0.14300
H238        H  0.11185400  0.60743763  0.76452427     0.14800
C239        C  0.17666743  0.75172021  0.62094351    -0.14800
C240        C  0.20494953  0.76770571  0.57382491    -0.29900
H241        H  0.13052255  0.75425737  0.62163319     0.14300
H242        H  0.25039774  0.75870430  0.57067479     0.14800
C243        C  0.35206875  0.71559073  0.73796672    -0.14800
C244        C  0.36258798  0.76910470  0.75606905    -0.29900
H245        H  0.38466468  0.68188680  0.74145520     0.14300
H246        H  0.32820091  0.80119833  0.75794370     0.14800
C247        C  0.16991344  0.16241231  0.60592612    -0.14800
C248        C  0.19361309  0.16179702  0.55327870    -0.29900
H249        H  0.12771383  0.14573825  0.61188759     0.14300
H250        H  0.23347594  0.18318473  0.54669033     0.14800
C251        C  0.33953434  0.20602550  0.72888386    -0.14800
C252        C  0.36030146  0.15242516  0.73686611    -0.29900
H253        H  0.36423758  0.24230972  0.74283379     0.14300
H254        H  0.33288454  0.11636322  0.72957519     0.14800
C255        C  0.17384014  0.36419557  0.76976763    -0.14800
C256        C  0.15299395  0.31204014  0.75970369    -0.29900
H257        H  0.21741879  0.37228370  0.75722761     0.14300
H258        H  0.10788052  0.30540330  0.76615061     0.14800
C259        C  0.58482566  0.18922403  0.71456480    -0.14800
C260        C  0.56524161  0.18482437  0.76859062    -0.29900
H261        H  0.55962635  0.17322880  0.67902316     0.14300
H262        H  0.59305097  0.19416179  0.80448868     0.14800
C263        C  0.76680331  0.16317785  0.60292167    -0.14800
C264        C  0.74512157  0.15540233  0.55016115    -0.29900
H265        H  0.81180801  0.15444129  0.60998302     0.14300
H266        H  0.70172006  0.16989982  0.54164642     0.14800
C267        C  0.75227872  0.31174625  0.75861429    -0.14800
C268        C  0.72315487  0.36152852  0.76782603    -0.29900
H269        H  0.79734247  0.30894042  0.76830406     0.14300
H270        H  0.67980592  0.36614591  0.75246328     0.14800
C271        C  0.61860230  0.77568341  0.75548123    -0.14800
C272        C  0.57058058  0.74700707  0.76286865    -0.29900
H273        H  0.61832116  0.82203626  0.76195976     0.14300
H274        H  0.56928209  0.70180785  0.75066255     0.14800
C275        C  0.76472488  0.61501124  0.76289730    -0.14800
C276        C  0.73080981  0.57036471  0.77078906    -0.29900
H277        H  0.81014420  0.60984247  0.77010348     0.14300
H278        H  0.68654048  0.57354261  0.75792810     0.14800
C279        C  0.78218248  0.76845893  0.61831189    -0.14800
C280        C  0.75505692  0.77466135  0.56795563    -0.29900
H281        H  0.82776233  0.77402864  0.62062447     0.14300
H282        H  0.71084707  0.76300045  0.56449915     0.14800
loop_ 
_geom_bond_atom_site_label_1 
_geom_bond_atom_site_label_2 
_geom_bond_distance 
_geom_bond_site_symmetry_2 
_ccdc_geom_bond_type 
C1            C2   1.402       .  A
C1            C6   1.403       .  A
C1          C279   1.476       .  S
C2            C3   1.403       .  A
C2            H7   1.084       .  S
C3            C4   1.405       .  A
C3          C275   1.479       .  S
C4            C5   1.404       .  A
C4            H8   1.084       .  S
C5            C6   1.401       .  A
C5          C271   1.477       .  S
C6            H9   1.084       .  S
C10          C11   1.403       .  A
C10          C15   1.405       .  A
C10         C267   1.483       .  S
C11          C12   1.403       .  A
C11          H16   1.084       .  S
C12          C13   1.408       .  A
C12         C263   1.484       .  S
C13          C14   1.404       .  A
C13          H17   1.084       .  S
C14          C15   1.405       .  A
C14         C259   1.485       .  S
C15          H18   1.083       .  S
C19          C20   1.401       .  A
C19          C24   1.409       .  A
C19         C256   1.486       .  S
C20          C21   1.402       .  A
C20          H25   1.085       .  S
C21          C22   1.407       .  A
C21         C247   1.480       .  S
C22          C23   1.406       .  A
C22          H26   1.084       .  S
C23          C24   1.404       .  A
C23         C251   1.486       .  S
C24          H27   1.082       .  S
C28          C29   1.401       .  A
C28          C33   1.406       .  A
C28         C235   1.475       .  S
C29          C30   1.397       .  A
C29          H34   1.083       .  S
C30          C31   1.403       .  A
C30         C243   1.477       .  S
C31          C32   1.406       .  A
C31          H35   1.084       .  S
C32          C33   1.404       .  A
C32         C239   1.483       .  S
C33          H36   1.084       .  S
C37          C38   1.402       .  A
C37          C42   1.404       .  A
C37         C231   1.476       .  S
C38          C39   1.405       .  A
C38          H43   1.084       .  S
C39          C40   1.403       .  A
C39         C223   1.476       .  S
C40          C41   1.401       .  A
C40          H44   1.083       .  S
C41          C42   1.402       .  A
C41         C227   1.476       .  S
C42          H45   1.085       .  S
C46          C47   1.403       .  A
C46          C51   1.406       .  A
C46         C219   1.483       .  S
C47          C48   1.407       .  A
C47          H52   1.084       .  S
C48          C49   1.401       .  A
C48         C215   1.480       .  S
C49          C50   1.401       .  A
C49          H53   1.085       .  S
C50          C51   1.406       .  A
C50         C211   1.481       .  S
C51          H54   1.083       .  S
C55          C56   1.403       .  A
C55          C60   1.407       .  A
C55         C203   1.480       .  S
C56          C57   1.402       .  A
C56          H61   1.085       .  S
C57          C58   1.404       .  A
C57         C199   1.477       .  S
C58          C59   1.398       .  A
C58          H62   1.084       .  S
C59          C60   1.403       .  A
C59         C207   1.474       .  S
C60          H63   1.084       .  S
C64         C276   1.473       .  S
C64          N65   1.354       .  A
C64          N69   1.356       .  A
N65          C66   1.357       .  A
C66         C268   1.472       .  S
C66          N67   1.362       .  A
N67          C68   1.361       .  A
C68          N69   1.359       .  A
C68          C98   1.468       .  S
C70         C236   1.474       .  S
C70          N71   1.354       .  A
C70          N75   1.354       .  A
N71          C72   1.353       .  A
C72         C255   1.473       .  S
C72          N73   1.364       .  A
N73          C74   1.366       .  A
C74          N75   1.360       .  A
C74         C100   1.472       .  S
C76         C212   1.476       .  S
C76          N77   1.356       .  A
C76          N81   1.360       .  A
N77          C78   1.356       .  A
C78         C204   1.474       .  S
C78          N79   1.359       .  A
N79          C80   1.360       .  A
C80          N81   1.361       .  A
C80         C101   1.470       .  S
C82         C224   1.473       .  S
C82          N83   1.355       .  A
C82          N87   1.356       .  A
N83          C84   1.360       .  A
C84          N85   1.360       .  A
C84          C99   1.468       .  S
N85          C86   1.361       .  A
C86         C195   1.472       .  S
C86          N87   1.356       .  A
O88          V96   1.889       .  S
O88          C98   1.262       .  A
O89          V96   1.891   1_554  S
O89          C99   1.262   1_655  A
O90          V96   1.896       .  S
O90         C100   1.265   1_655  A
O91          V96   1.900   1_554  S
O91         C101   1.264       .  A
O92          V97   1.904   1_554  S
O92         C101   1.265       .  A
O93          V97   1.909   1_455  S
O93         C100   1.265       .  A
O94          V97   1.909   1_454  S
O94          C99   1.266       .  A
O95          V97   1.911       .  S
O95          C98   1.266       .  A
V96          V97   2.088       .  T
C102        C272   1.472       .  S
C102        N103   1.362       .  A
C102        N107   1.359       .  A
N103        C104   1.359       .  A
C104        N105   1.354       .  A
C104        C137   1.465       .  S
N105        C106   1.352       .  A
C106        C244   1.468       .  S
C106        N107   1.359       .  A
C108        C252   1.475       .  S
C108        N109   1.364       .  A
C108        N113   1.357       .  A
N109        C110   1.364       .  A
C110        C260   1.471       .  S
C110        N111   1.356       .  A
N111        C112   1.354       .  A
C112        N113   1.356       .  A
C112        C139   1.465       .  S
C114        C228   1.470       .  S
C114        N115   1.354       .  A
C114        N119   1.356       .  A
N115        C116   1.358       .  A
C116        N117   1.362       .  A
C116        C138   1.469       .  S
N117        C118   1.363       .  A
C118        C216   1.473       .  S
C118        N119   1.357       .  A
C120        C191   1.468       .  S
C120        N121   1.354       .  A
C120        N125   1.358       .  A
N121        C122   1.353       .  A
C122        C200   1.468       .  S
C122        N123   1.358       .  A
N123        C124   1.360       .  A
C124        N125   1.360       .  A
C124        C136   1.464       .  S
O126        V134   1.897   1_544  S
O126        C136   1.263       .  A
O127        V134   1.893       .  S
O127        C137   1.264       .  A
O128        V134   1.892   1_554  S
O128        C138   1.263       .  A
O129        V134   1.892   1_545  S
O129        C139   1.262       .  A
O130        V135   1.904   1_545  S
O130        C139   1.266       .  A
O131        V135   1.909   1_554  S
O131        C138   1.266       .  A
O132        V135   1.903       .  S
O132        C137   1.264       .  A
O133        V135   1.897   1_544  S
O133        C136   1.264       .  A
V134        V135   2.089       .  T
C140        C141   1.407       .  A
C140        C145   1.402       .  A
C140        C196   1.478       .  S
C141        C142   1.402       .  A
C141        H146   1.084       .  S
C142        C143   1.402       .  A
C142        C187   1.480       .  S
C143        C144   1.404       .  A
C143        H147   1.084       .  S
C144        C145   1.401       .  A
C144        C192   1.477       .  S
C145        H148   1.084       .  S
C149        C220   1.473       .  S
C149        N150   1.360       .  A
C149        N154   1.354       .  A
N150        C151   1.362       .  A
C151        C280   1.473       .  S
C151        N152   1.361       .  A
N152        C153   1.358       .  A
C153        N154   1.356       .  A
C153        C186   1.466       .  S
C155        C240   1.469       .  S
C155        N156   1.355       .  A
C155        N160   1.361       .  A
N156        C157   1.353       .  A
C157        C232   1.469       .  S
C157        N158   1.356       .  A
N158        C159   1.360       .  A
C159        N160   1.363       .  A
C159        C183   1.467       .  S
C161        C264   1.475       .  S
C161        N162   1.357       .  A
C161        N166   1.364       .  A
N162        C163   1.357       .  A
C163        C208   1.474       .  S
C163        N164   1.354       .  A
N164        C165   1.358       .  A
C165        N166   1.363       .  A
C165        C184   1.471       .  S
C167        C248   1.476       .  S
C167        N168   1.360       .  A
C167        N172   1.363       .  A
N168        C169   1.358       .  A
C169        C188   1.469       .  S
C169        N170   1.352       .  A
N170        C171   1.356       .  A
C171        N172   1.360       .  A
C171        C185   1.467       .  S
O173        V181   1.892   1_455  S
O173        C183   1.263       .  A
O174        V181   1.894   1_545  S
O174        C184   1.264       .  A
O175        V181   1.886   1_445  S
O175        C185   1.262       .  A
O176        V181   1.888       .  S
O176        C186   1.262       .  A
O177        V182   1.909       .  S
O177        C186   1.266       .  A
O178        V182   1.911   1_445  S
O178        C185   1.266       .  A
O179        V182   1.910   1_545  S
O179        C184   1.265       .  A
O180        V182   1.907   1_455  S
O180        C183   1.265       .  A
V181        V182   2.089       .  T
C187        C188   1.342       .  D
C187        H189   1.087       .  S
C188        H190   1.087       .  S
C191        C192   1.342       .  D
C191        H193   1.087       .  S
C192        H194   1.086       .  S
C195        C196   1.341       .  D
C195        H197   1.087       .  S
C196        H198   1.086       .  S
C199        C200   1.341       .  D
C199        H201   1.087       .  S
C200        H202   1.088       .  S
C203        C204   1.344       .  D
C203        H205   1.087       .  S
C204        H206   1.087       .  S
C207        C208   1.341       .  D
C207        H209   1.087       .  S
C208        H210   1.087       .  S
C211        C212   1.344       .  D
C211        H213   1.086       .  S
C212        H214   1.086       .  S
C215        C216   1.341       .  D
C215        H217   1.088       .  S
C216        H218   1.089       .  S
C219        C220   1.342       .  D
C219        H221   1.087       .  S
C220        H222   1.088       .  S
C223        C224   1.342       .  D
C223        H225   1.086       .  S
C224        H226   1.086       .  S
C227        C228   1.342       .  D
C227        H229   1.086       .  S
C228        H230   1.086       .  S
C231        C232   1.343       .  D
C231        H233   1.087       .  S
C232        H234   1.087       .  S
C235        C236   1.343       .  D
C235        H237   1.086       .  S
C236        H238   1.085       .  S
C239        C240   1.343       .  D
C239        H241   1.087       .  S
C240        H242   1.087       .  S
C243        C244   1.339       .  D
C243        H245   1.086       .  S
C244        H246   1.086       .  S
C247        C248   1.343       .  D
C247        H249   1.087       .  S
C248        H250   1.087       .  S
C251        C252   1.343       .  D
C251        H253   1.086       .  S
C252        H254   1.086       .  S
C255        C256   1.341       .  D
C255        H257   1.088       .  S
C256        H258   1.088       .  S
C259        C260   1.343       .  D
C259        H261   1.087       .  S
C260        H262   1.086       .  S
C263        C264   1.343       .  D
C263        H265   1.087       .  S
C264        H266   1.087       .  S
C267        C268   1.344       .  D
C267        H269   1.086       .  S
C268        H270   1.086       .  S
C271        C272   1.342       .  D
C271        H273   1.087       .  S
C272        H274   1.087       .  S
C275        C276   1.344       .  D
C275        H277   1.087       .  S
C276        H278   1.087       .  S
C279        C280   1.344       .  D
C279        H281   1.086       .  S
C280        H282   1.087       .  S
