geometry optimzed in LAMMPS
_audit_creation_date              2020-12-01 
_audit_creation_method            'lammps2cif' 
_symmetry_space_group_name_H-M    'P1' 
_symmetry_Int_Tables_number       1 
_symmetry_cell_setting            triclinic 
loop_ 
_symmetry_equiv_pos_as_xyz 
  x,y,z 
_cell_length_a                    25.85244538 
_cell_length_b                    25.85650210125455 
_cell_length_c                    59.54804303887871 
_cell_angle_alpha                 89.86260079274605 
_cell_angle_beta                  90.03069308436109 
_cell_angle_gamma                 89.88649018514627 
loop_ 
_atom_site_label 
_atom_site_type_symbol 
_atom_site_fract_x 
_atom_site_fract_y 
_atom_site_fract_z 
_atom_site_charge 
N1          N  0.57986652  0.43654361  0.64050324    -0.27200
N2          N  0.57801783  0.46393712  0.65918296    -0.35000
C3          C  0.59952536  0.43641546  0.67601763     0.01200
C4          C  0.61564359  0.38933743  0.66751838     0.07200
C5          C  0.60201926  0.39054517  0.64502676    -0.05900
H6          H  0.59882494  0.44770485  0.69348724     0.07900
H7          H  0.60481363  0.35895251  0.63320194     0.09100
Cu8        Cu  0.53565570  0.53175085  0.66158848     0.44200
Cu9        Cu  0.54545312  0.46104508  0.61066269     0.42000
Cu10       Cu  0.45192436  0.56701501  0.61460315     0.43900
N11         N  0.48068765  0.59008211  0.66263513    -0.34600
N12         N  0.44773829  0.60112171  0.64628730    -0.28800
C13         C  0.41677831  0.64017241  0.65305219    -0.04900
C14         C  0.43163264  0.65442708  0.67451293     0.07300
C15         C  0.47238150  0.62224852  0.67992634     0.01100
H16         H  0.38799504  0.65887644  0.64264029     0.08700
H17         H  0.49505434  0.62276595  0.69520956     0.07800
N18         N  0.47357157  0.53192576  0.58448120    -0.36000
N19         N  0.50767287  0.49379663  0.58314927    -0.28200
C20         C  0.51487300  0.48162393  0.56140786    -0.03400
C21         C  0.48407178  0.51362841  0.54835699     0.05200
C22         C  0.45837288  0.54501275  0.56356152     0.03300
H23         H  0.54123277  0.45212096  0.55549354     0.08400
H24         H  0.43153055  0.57589025  0.55966394     0.07200
N25         N  0.38199539  0.47179840  0.28259057    -0.27200
N26         N  0.40453275  0.48377013  0.26334286    -0.35000
C27         C  0.37576790  0.46516188  0.24632508     0.01200
C28         C  0.33358354  0.43966193  0.25530987     0.07200
C29         C  0.33829689  0.44533213  0.27831093    -0.05900
H30         H  0.38369500  0.47177915  0.22871484     0.07900
H31         H  0.31089445  0.43303040  0.29094654     0.09100
Cu32       Cu  0.47138040  0.52820475  0.26125229     0.44200
Cu33       Cu  0.41091711  0.49392001  0.31372230     0.42000
Cu34       Cu  0.53288332  0.56444701  0.31383253     0.43900
N35         N  0.53736920  0.57395244  0.26322532    -0.34600
N36         N  0.55979342  0.58773253  0.28226674    -0.28800
C37         C  0.60272404  0.61519886  0.27744371    -0.04900
C38         C  0.60718817  0.61923495  0.25431277     0.07300
C39         C  0.56559286  0.59185766  0.24590499     0.01100
H40         H  0.63043432  0.62829694  0.28979973     0.08700
H41         H  0.55785814  0.58334531  0.22845450     0.07800
N42         N  0.49523610  0.53914468  0.34293140    -0.36000
N43         N  0.45035659  0.51460968  0.34280040    -0.28200
C44         C  0.43599309  0.50471909  0.36411396    -0.03400
C45         C  0.47362738  0.52370578  0.37841289     0.05200
C46         C  0.51063420  0.54525139  0.36439422     0.03300
H47         H  0.40070261  0.48516972  0.36886300     0.08400
H48         H  0.54608537  0.56405697  0.36944496     0.07200
N49         N  0.36863593  0.76117814  0.70376145    -0.27200
N50         N  0.41806608  0.77350535  0.70595709    -0.35000
C51         C  0.44729910  0.73663140  0.69644853     0.01200
C52         C  0.41499574  0.69985552  0.68737781     0.07200
C53         C  0.36529323  0.71647152  0.69220248    -0.05900
H54         H  0.48902363  0.73799548  0.69513998     0.07900
H55         H  0.32949507  0.69762290  0.68763950     0.09100
Cu56       Cu  0.44544865  0.84383567  0.71742550     0.44200
Cu57       Cu  0.30850402  0.80675069  0.71630901     0.42000
Cu58       Cu  0.34949900  0.93934954  0.72598539     0.43900
N59         N  0.46298008  0.92171354  0.71980783    -0.34600
N60         N  0.42679467  0.95748806  0.72188148    -0.28800
C61         C  0.44877874  0.00449803  0.72064126    -0.04900
C62         C  0.50144266  0.99787699  0.71772075     0.07300
C63         C  0.50916875  0.94490507  0.71733735     0.01100
H64         H  0.42788491  0.04072453  0.72162289     0.08700
H65         H  0.54532979  0.92472382  0.71463482     0.07800
N66         N  0.27608975  0.91205209  0.73300651    -0.36000
N67         N  0.26083631  0.86368537  0.73010953    -0.28200
C68         C  0.21206001  0.85897145  0.73788441    -0.03400
C69         C  0.19623940  0.90673989  0.74579732     0.05200
C70         C  0.23763919  0.93932727  0.74247760     0.03300
H71         H  0.19008370  0.82339770  0.73802087     0.08400
H72         H  0.24018039  0.97967186  0.74714947     0.07200
N73         N  0.77334506  0.17832256  0.72838138    -0.27200
N74         N  0.76244459  0.12870837  0.72567091    -0.35000
C75         C  0.80146465  0.09987300  0.73375257     0.01200
C76         C  0.83850283  0.13252037  0.74230640     0.07200
C77         C  0.81959813  0.18208214  0.73879555    -0.05900
H78         H  0.80161277  0.05804422  0.73438247     0.07900
H79         H  0.83795552  0.21803150  0.74347612     0.09100
Cu80       Cu  0.69230845  0.09980304  0.71496261     0.44200
Cu81       Cu  0.72436421  0.23783412  0.71726932     0.42000
Cu82       Cu  0.59518751  0.19097043  0.70280695     0.43900
N83         N  0.61536542  0.07942905  0.71255276    -0.34600
N84         N  0.57855457  0.11397215  0.70907812    -0.28800
C85         C  0.53228090  0.09043598  0.71035389    -0.04900
C86         C  0.54063231  0.03846732  0.71472570     0.07300
C87         C  0.59375391  0.03282174  0.71596703     0.01100
H88         H  0.49540539  0.10971334  0.70823052     0.08700
H89         H  0.61509411  0.99779362  0.71968755     0.07800
N90         N  0.62232829  0.26420538  0.69507033    -0.36000
N91         N  0.66823180  0.28262284  0.70079684    -0.28200
C92         C  0.67280017  0.33099620  0.69241553    -0.03400
C93         C  0.62796979  0.34274061  0.68067063     0.05200
C94         C  0.59708747  0.29962396  0.68267804     0.03300
H95         H  0.70693100  0.35488526  0.69394477     0.08400
H96         H  0.55913037  0.29407668  0.67539462     0.07200
N97         N  0.92259498  0.93546680  0.13830865    -0.27200
N98         N  0.91892512  0.96115260  0.15741321    -0.35000
C99         C  0.89488077  0.93106897  0.17273706     0.01200
C100        C  0.88345158  0.88411244  0.16275810     0.07200
C101        C  0.90203823  0.88819758  0.14105497    -0.05900
H102        H  0.88982493  0.94104967  0.19022307     0.07900
H103        H  0.90226544  0.85823248  0.12839524     0.09100
Cu104      Cu  0.95582687  0.03178351  0.16220458     0.44200
Cu105      Cu  0.95766919  0.96462684  0.10955554     0.42000
Cu106      Cu  0.03598166  0.07829447  0.11505360     0.43900
N107        N  0.00848645  0.09251706  0.16413402    -0.34600
N108        N  0.03966379  0.10714253  0.14766601    -0.28800
C109        C  0.07021714  0.14566053  0.15510770    -0.04900
C110        C  0.05718696  0.15606550  0.17715804     0.07300
C111        C  0.01766941  0.12209151  0.18224643     0.01100
H112        H  0.09769489  0.16650803  0.14483987     0.08700
H113        H  0.99665681  0.11946364  0.19791549     0.07800
N114        N  0.01979753  0.04421628  0.08417288    -0.36000
N115        N  0.99074379  0.00240772  0.08228824    -0.28200
C116        C  0.98520045  0.99078918  0.06040724    -0.03400
C117        C  0.01215701  0.02688826  0.04790762     0.05200
C118        C  0.03366049  0.06025743  0.06347412     0.03300
H119        H  0.96253840  0.95888571  0.05403624     0.08400
H120        H  0.05669080  0.09422259  0.05998837     0.07200
N121        N  0.09434595  0.94731493  0.78352296    -0.27200
N122        N  0.07608516  0.96465415  0.76417169    -0.35000
C123        C  0.10778675  0.94943224  0.74752319     0.01200
C124        C  0.14736612  0.92039024  0.75678925     0.07200
C125        C  0.13803219  0.92035091  0.77965504    -0.05900
H126        H  0.10410792  0.96136954  0.73017946     0.07900
H127        H  0.16311871  0.90512521  0.79263771     0.09100
Cu128      Cu  0.01284350  0.01381383  0.76164716     0.44200
Cu129      Cu  0.06346466  0.96823782  0.81444701     0.42000
Cu130      Cu  0.96378988  0.06822054  0.81347090     0.43900
N131        N  0.95232163  0.06648846  0.76309425    -0.34600
N132        N  0.93551335  0.08809057  0.78183901    -0.28800
C133        C  0.89480725  0.11877731  0.77695227    -0.04900
C134        C  0.88563552  0.11610888  0.75408461     0.07300
C135        C  0.92232922  0.08211785  0.74591927     0.01100
H136        H  0.87113882  0.13815235  0.78932563     0.08700
H137        H  0.92540460  0.06779252  0.72891286     0.07800
N138        N  0.99550926  0.03755374  0.84280113    -0.36000
N139        N  0.03115712  0.00074646  0.84313511    -0.28200
C140        C  0.04342506  0.98989063  0.86461382    -0.05600
C141        C  0.01417823  0.02135363  0.87845382     0.05200
C142        C  0.98421453  0.05102572  0.86407301     0.03300
H143        H  0.07203018  0.96166674  0.86977613     0.08400
H144        H  0.95636689  0.08037794  0.86874032     0.07200
N145        N  0.12061368  0.26420292  0.20519496    -0.27200
N146        N  0.07129579  0.27308600  0.20980549    -0.35000
C147        C  0.04232277  0.23442896  0.20164370     0.01200
C148        C  0.07443931  0.19990230  0.19090636     0.07200
C149        C  0.12387687  0.21989675  0.19332024    -0.05900
H150        H  0.00046746  0.23389132  0.20178816     0.07900
H151        H  0.15930760  0.20413429  0.18648499     0.09100
Cu152      Cu  0.04202151  0.34283637  0.22072414     0.44200
Cu153      Cu  0.18031087  0.31475926  0.21459674     0.42000
Cu154      Cu  0.13402329  0.44481647  0.22135099     0.43900
N155        N  0.02149952  0.41969252  0.21803992    -0.34600
N156        N  0.05615655  0.45705045  0.21695304    -0.28800
C157        C  0.03235063  0.50177945  0.21201286    -0.04900
C158        C  0.98014005  0.49197944  0.20992290     0.07300
C159        C  0.97439102  0.43966492  0.21394691     0.01100
H160        H  0.05179202  0.53848443  0.20983071     0.08700
H161        H  0.93908541  0.41736668  0.21291940     0.07800
N162        N  0.20824441  0.42277999  0.22923841    -0.36000
N163        N  0.22618469  0.37509175  0.22717802    -0.28200
C164        C  0.27467021  0.37360408  0.23562361    -0.03400
C165        C  0.28721595  0.42276844  0.24314108     0.05200
C166        C  0.24423700  0.45272424  0.23890670     0.03300
H167        H  0.29830255  0.33914605  0.23684549     0.08400
H168        H  0.23876091  0.49297192  0.24325413     0.07200
N169        N  0.71721858  0.67660616  0.22455516    -0.27200
N170        N  0.72568231  0.62641516  0.22201443    -0.35000
C171        C  0.68781177  0.59945686  0.23198880     0.01200
C172        C  0.65373566  0.63375711  0.24157709     0.07200
C173        C  0.67327636  0.68251991  0.23663235    -0.05900
H174        H  0.68608800  0.55766926  0.23275347     0.07900
H175        H  0.65670758  0.71937598  0.24136074     0.09100
Cu176      Cu  0.79049965  0.59359823  0.20798254     0.44200
Cu177      Cu  0.76682533  0.73359396  0.21090155     0.42000
Cu178      Cu  0.88395389  0.67716222  0.18641649     0.43900
N179        N  0.86483881  0.56947085  0.20172717    -0.34600
N180        N  0.90052655  0.60161693  0.19431851    -0.28800
C181        C  0.94693718  0.57844243  0.19540734    -0.04900
C182        C  0.93980226  0.52918382  0.20385555     0.07300
C183        C  0.88730117  0.52453381  0.20756923     0.01100
H184        H  0.98327208  0.59689361  0.19128564     0.08700
H185        H  0.86743092  0.49239103  0.21539489     0.07800
N186        N  0.86315207  0.75348345  0.18302752    -0.36000
N187        N  0.82289463  0.77596914  0.19271073    -0.28200
C188        C  0.82409474  0.82696047  0.18755047    -0.03400
C189        C  0.86648168  0.83595950  0.17373273     0.05200
C190        C  0.88994590  0.78854917  0.17121903     0.03300
H191        H  0.79543736  0.85498584  0.19281311     0.08400
H192        H  0.92455368  0.78011993  0.16167128     0.07200
C193        C  0.01545742  0.02351296  0.90331702     0.01400
C194        C  0.99967013  0.98038231  0.91614057     0.04300
C195        C  0.00092013  0.98245644  0.93977551    -0.11800
C196        C  0.01738740  0.02780889  0.95073090     0.23600
C197        C  0.03292431  0.07099073  0.93795340    -0.12400
C198        C  0.03234220  0.06875382  0.91431265     0.05000
C199        C  0.01728325  0.03028304  0.97569639     0.27400
C200        C  0.97300259  0.04810771  0.98712289    -0.13000
C201        C  0.97161621  0.04767621  0.01076810     0.05500
C202        C  0.01481898  0.03016473  0.02311432    -0.09000
C203        C  0.05976411  0.01399348  0.01169627     0.06300
C204        C  0.06089621  0.01378273  0.98802793    -0.13400
Br205      Br  0.05461635  0.13329052  0.95298558    -0.05500
Br206      Br  0.97390492  0.91924648  0.90138984     0.00200
Br207      Br  0.91066249  0.07159569  0.02629027     0.00600
Br208      Br  0.12183765  0.99032864  0.97237304    -0.03800
Br209      Br  0.05662496  0.12708796  0.89704833     0.00700
Br210      Br  0.97941739  0.92342885  0.95729552    -0.03100
Br211      Br  0.91426590  0.07300101  0.97023970    -0.03900
Br212      Br  0.11917823  0.99064383  0.02851698     0.00000
C213        C  0.47379642  0.52180029  0.40336498     0.01400
C214        C  0.47356490  0.47374501  0.41472249     0.04300
C215        C  0.47407974  0.47202823  0.43839914    -0.11800
C216        C  0.47413652  0.51825169  0.45090487     0.23600
C217        C  0.47375136  0.56623115  0.43960298    -0.12400
C218        C  0.47390393  0.56804765  0.41593934     0.05000
C219        C  0.47643068  0.51657090  0.47591952     0.27400
C220        C  0.43117067  0.50849239  0.48865371    -0.13000
C221        C  0.43367497  0.50695241  0.51231498     0.05500
C222        C  0.48121447  0.51528105  0.52343197    -0.09000
C223        C  0.52628958  0.52439870  0.51062039     0.06300
C224        C  0.52406934  0.52376444  0.48698209    -0.13400
Br225      Br  0.47292657  0.62954558  0.45670401    -0.05500
Br226      Br  0.47513011  0.41000521  0.39793927     0.00200
Br227      Br  0.37230285  0.49085303  0.52936561     0.00600
Br228      Br  0.58648577  0.53217035  0.46958391    -0.03800
Br229      Br  0.47242668  0.63417147  0.40085005     0.00700
Br230      Br  0.47601930  0.40634828  0.45384170    -0.03100
Br231      Br  0.36575418  0.49952027  0.47356887    -0.03900
Br232      Br  0.59074532  0.54095472  0.52528569     0.00000
loop_ 
_geom_bond_atom_site_label_1 
_geom_bond_atom_site_label_2 
_geom_bond_distance 
_geom_bond_site_symmetry_2 
_ccdc_geom_bond_type 
N1            N2   1.321       .  A
N1            C5   1.346       .  A
N1           Cu9   2.084       .  S
N2            C3   1.347       .  A
N2           Cu8   2.071       .  S
C3            C4   1.383       .  A
C3            H6   1.081       .  S
C4            C5   1.385       .  A
C4           C93   1.470       .  S
C5            H7   1.082       .  S
Cu8          N11   2.071       .  S
Cu9          N19   2.084       .  S
Cu10         N12   2.087       .  S
Cu10         N18   2.088       .  S
N11          N12   1.323       .  A
N11          C15   1.342       .  A
N12          C13   1.350       .  A
C13          C14   1.385       .  A
C13          H16   1.081       .  S
C14          C15   1.379       .  A
C14          C52   1.468       .  S
C15          H17   1.082       .  S
N18          N19   1.324       .  A
N18          C22   1.348       .  A
N19          C20   1.346       .  A
C20          C21   1.384       .  A
C20          H23   1.082       .  S
C21          C22   1.386       .  A
C21         C222   1.487       .  S
C22          H24   1.081       .  S
N25          N26   1.322       .  A
N25          C29   1.347       .  A
N25         Cu33   2.080       .  S
N26          C27   1.347       .  A
N26         Cu32   2.081       .  S
C27          C28   1.383       .  A
C27          H30   1.082       .  S
C28          C29   1.383       .  A
C28         C165   1.468       .  S
C29          H31   1.081       .  S
Cu32         N35   2.081       .  S
Cu33         N43   2.081       .  S
Cu34         N36   2.092       .  S
Cu34         N42   2.092       .  S
N35          N36   1.323       .  A
N35          C39   1.345       .  A
N36          C37   1.349       .  A
C37          C38   1.386       .  A
C37          H40   1.082       .  S
C38          C39   1.383       .  A
C38         C172   1.472       .  S
C39          H41   1.081       .  S
N42          N43   1.323       .  A
N42          C46   1.348       .  A
N43          C44   1.347       .  A
C44          C45   1.384       .  A
C44          H47   1.081       .  S
C45          C46   1.387       .  A
C45         C213   1.487       .  S
C46          H48   1.081       .  S
N49          N50   1.324       .  A
N49          C53   1.350       .  A
N49         Cu57   2.088       .  S
N50          C51   1.342       .  A
N50         Cu56   2.070       .  S
C51          C52   1.378       .  A
C51          H54   1.082       .  S
C52          C53   1.385       .  A
C53          H55   1.082       .  S
Cu56         N59   2.070       .  S
Cu57         N67   2.088       .  S
Cu58         N60   2.068       .  S
Cu58         N66   2.069       .  S
N59          N60   1.320       .  A
N59          C63   1.345       .  A
N60          C61   1.345   1_565  A
C61          C62   1.383   1_545  A
C61          H64   1.082       .  S
C62          C63   1.384       .  A
C62          C86   1.471   1_565  S
C63          H65   1.082       .  S
N66          N67   1.324       .  A
N66          C70   1.343       .  A
N67          C68   1.349       .  A
C68          C69   1.384       .  A
C68          H71   1.082       .  S
C69          C70   1.378       .  A
C69         C124   1.466       .  S
C70          H72   1.082       .  S
N73          N74   1.324       .  A
N73          C77   1.350       .  A
N73         Cu81   2.097       .  S
N74          C75   1.342       .  A
N74         Cu80   2.064       .  S
C75          C76   1.376       .  A
C75          H78   1.082       .  S
C76          C77   1.386       .  A
C76         C134   1.467       .  S
C77          H79   1.082       .  S
Cu80         N83   2.064       .  S
Cu81         N91   2.097       .  S
Cu82         N84   2.071       .  S
Cu82         N90   2.072       .  S
N83          N84   1.320       .  A
N83          C87   1.344       .  A
N84          C85   1.345       .  A
C85          C86   1.385       .  A
C85          H88   1.082       .  S
C86          C87   1.383       .  A
C87          H89   1.082   1_545  S
N90          N91   1.324       .  A
N90          C94   1.343       .  A
N91          C92   1.351       .  A
C92          C93   1.386       .  A
C92          H95   1.082       .  S
C93          C94   1.378       .  A
C94          H96   1.083       .  S
N97          N98   1.322       .  A
N97         C101   1.343       .  A
N97        Cu105   2.079       .  S
N98          C99   1.350       .  A
N98        Cu104   2.082   1_565  S
C99         C100   1.385       .  A
C99         H102   1.081       .  S
C100        C101   1.383       .  A
C100        C189   1.473       .  S
C101        H103   1.082       .  S
Cu104       N107   2.084   1_655  S
Cu105       N115   2.078   1_565  S
Cu106       N108   2.084       .  S
Cu106       N114   2.084       .  S
N107        N108   1.325       .  A
N107        C111   1.345       .  A
N108        C109   1.348       .  A
C109        C110   1.383       .  A
C109        H112   1.081       .  S
C110        C111   1.382       .  A
C110        C148   1.470       .  S
C111        H113   1.082   1_455  S
N114        N115   1.323   1_455  A
N114        C118   1.348       .  A
N115        C116   1.345   1_545  A
C116        C117   1.382   1_665  A
C116        H119   1.082       .  S
C117        C118   1.385       .  A
C117        C202   1.480       .  S
C118        H120   1.082       .  S
N121        N122   1.322       .  A
N121        C125   1.346       .  A
N121       Cu129   2.080       .  S
N122        C123   1.346       .  A
N122       Cu128   2.074   1_565  S
C123        C124   1.382       .  A
C123        H126   1.081       .  S
C124        C125   1.383       .  A
C125        H127   1.082       .  S
Cu128       N131   2.074   1_455  S
Cu129       N139   2.080   1_565  S
Cu130       N132   2.083       .  S
Cu130       N138   2.083       .  S
N131        N132   1.323       .  A
N131        C135   1.344       .  A
N132        C133   1.348       .  A
C133        C134   1.384       .  A
C133        H136   1.081       .  S
C134        C135   1.381       .  A
C135        H137   1.082       .  S
N138        N139   1.324   1_655  A
N138        C142   1.347       .  A
N139        C140   1.346   1_545  A
C140        C141   1.384   1_565  A
C140        H143   1.082       .  S
C141        C142   1.384   1_455  A
C141        C193   1.482       .  S
C142        H144   1.082       .  S
N145        N146   1.324       .  A
N145        C149   1.350       .  A
N145       Cu153   2.101       .  S
N146        C147   1.342       .  A
N146       Cu152   2.061       .  S
C147        C148   1.377       .  A
C147        H150   1.082       .  S
C148        C149   1.387       .  A
C149        H151   1.082       .  S
Cu152       N155   2.062       .  S
Cu153       N163   2.101       .  S
Cu154       N156   2.054       .  S
Cu154       N162   2.054       .  S
N155        N156   1.320       .  A
N155        C159   1.344   1_455  A
N156        C157   1.341       .  A
C157        C158   1.379   1_455  A
C157        H160   1.082       .  S
C158        C159   1.381       .  A
C158        C182   1.462       .  S
C159        H161   1.082       .  S
N162        N163   1.323       .  A
N162        C166   1.342       .  A
N163        C164   1.351       .  A
C164        C165   1.388       .  A
C164        H167   1.082       .  S
C165        C166   1.376       .  A
C166        H168   1.082       .  S
N169        N170   1.325       .  A
N169        C173   1.353       .  A
N169       Cu177   2.117       .  S
N170        C171   1.341       .  A
N170       Cu176   2.056       .  S
C171        C172   1.374       .  A
C171        H174   1.082       .  S
C172        C173   1.390       .  A
C173        H175   1.082       .  S
Cu176       N179   2.054       .  S
Cu177       N187   2.116       .  S
Cu178       N180   2.052       .  S
Cu178       N186   2.054       .  S
N179        N180   1.318       .  A
N179        C183   1.343       .  A
N180        C181   1.342       .  A
C181        C182   1.381       .  A
C181        H184   1.082       .  S
C182        C183   1.381       .  A
C183        H185   1.083       .  S
N186        N187   1.324       .  A
N186        C190   1.340       .  A
N187        C188   1.353       .  A
C188        C189   1.390       .  A
C188        H191   1.082       .  S
C189        C190   1.375       .  A
C190        H192   1.082       .  S
C193        C194   1.411   1_445  A
C193        C198   1.412       .  A
C194        C195   1.409   1_655  A
C194       Br206   1.930       .  S
C195        C196   1.410   1_565  A
C195       Br210   1.930   1_455  S
C196        C197   1.409       .  A
C196        C199   1.488       .  S
C197        C198   1.409       .  A
C197       Br205   1.929       .  S
C198       Br209   1.930       .  S
C199        C200   1.409   1_455  A
C199        C204   1.410       .  A
C200        C201   1.409   1_556  A
C200       Br211   1.929       .  S
C201        C202   1.410   1_655  A
C201       Br207   1.929       .  S
C202        C203   1.410       .  A
C203        C204   1.410   1_554  A
C203       Br212   1.928   1_545  S
C204       Br208   1.929   1_545  S
C213        C214   1.413       .  A
C213        C218   1.412       .  A
C214        C215   1.411       .  A
C214       Br226   1.930       .  S
C215        C216   1.410       .  A
C215       Br230   1.930       .  S
C216        C217   1.410       .  A
C216        C219   1.491       .  S
C217        C218   1.410       .  A
C217       Br225   1.930       .  S
C218       Br229   1.930       .  S
C219        C220   1.410       .  A
C219        C224   1.409       .  A
C220        C221   1.411       .  A
C220       Br231   1.929       .  S
C221        C222   1.413       .  A
C221       Br227   1.930       .  S
C222        C223   1.413       .  A
C223        C224   1.409       .  A
C223       Br232   1.930       .  S
C224       Br228   1.930       .  S
