geometry optimzed in LAMMPS
_audit_creation_date              2020-12-01 
_audit_creation_method            'lammps2cif' 
_symmetry_space_group_name_H-M    'P1' 
_symmetry_Int_Tables_number       1 
_symmetry_cell_setting            triclinic 
loop_ 
_symmetry_equiv_pos_as_xyz 
  x,y,z 
_cell_length_a                    23.41529144 
_cell_length_b                    24.871153556042373 
_cell_length_c                    37.91241797885244 
_cell_angle_alpha                 89.63427037618479 
_cell_angle_beta                  89.17207762612315 
_cell_angle_gamma                 89.8117335406417 
loop_ 
_atom_site_label 
_atom_site_type_symbol 
_atom_site_fract_x 
_atom_site_fract_y 
_atom_site_fract_z 
_atom_site_charge 
N1          N  0.47147456  0.46238550  0.83095708    -0.03200
C2          C  0.48486789  0.41801582  0.85034279    -0.00600
C3          C  0.44727227  0.41228815  0.87856388    -0.23500
C4          C  0.40914798  0.45398640  0.87633265    -0.23700
C5          C  0.42519937  0.48452490  0.84736010    -0.00700
H6          H  0.44779822  0.38150752  0.89885478     0.13100
H7          H  0.37370944  0.46160600  0.89412737     0.13100
O8          O  0.92823716  0.10331780  0.91936454    -0.78200
C9          C  0.01474780  0.00140284  0.00473463     0.82900
O10         O  0.12690727  0.08048989  0.89139817    -0.79300
O11         O  0.09773444  0.89159880  0.92046073    -0.80800
O12         O  0.90038757  0.92003408  0.89443436    -0.80600
O13         O  0.89352591  0.05210431  0.87689387    -0.79200
Zn14       Zn  0.99897649  0.06213548  0.93555665     1.55700
O15         O  0.95472129  0.88556043  0.93676968    -0.80600
Cd16       Cd  0.94701800  0.98588589  0.87635712     1.59700
Cd17       Cd  0.08309367  0.01112154  0.87602462     1.59600
O18         O  0.97280054  0.97713766  0.82423665    -0.80600
O19         O  0.01394242  0.99944130  0.90669302    -1.91100
Cd20       Cd  0.02608165  0.93511831  0.93731001     1.59900
O21         O  0.05880576  0.01569563  0.82341214    -0.80600
O22         O  0.03355219  0.95943470  0.98913592    -0.79200
C23         C  0.11249903  0.11593877  0.91417138     0.83300
C24         C  0.89189887  0.09488953  0.89521453     0.83000
O25         O  0.99497030  0.04148632  0.98747979    -0.78200
C26         C  0.90903652  0.88540806  0.91880319     0.83800
O27         O  0.06544516  0.11264042  0.93133038    -0.78300
C28         C  0.01597956  0.99606492  0.80743213     0.83900
C29         C  0.13629622  0.90082614  0.89699642     0.84300
O30         O  0.13688917  0.94443419  0.87900870    -0.80700
N31         N  0.46301881  0.54112616  0.97580956    -0.03200
C32         C  0.41367231  0.52779739  0.95954919    -0.00600
C33         C  0.40546108  0.56056381  0.93045569    -0.23500
C34         C  0.45212717  0.59359262  0.92778698    -0.23700
C35         C  0.48673515  0.58094695  0.95576828    -0.00700
H36         H  0.37064051  0.55884585  0.91212250     0.13100
H37         H  0.46040504  0.62341703  0.90749080     0.13100
N38         N  0.06651331  0.05686998  0.33288932    -0.03200
C39         C  0.05339591  0.10346457  0.34970698    -0.00600
C40         C  0.08201723  0.10607823  0.38123610    -0.23500
C41         C  0.11147673  0.05863957  0.38487685    -0.23700
C42         C  0.10139376  0.02913481  0.35487943    -0.00700
H43         H  0.07904978  0.13774628  0.40045307     0.13100
H44         H  0.13678532  0.04656186  0.40725731     0.13100
O45         O  0.59408482  0.40209891  0.41104162    -0.78200
C46         C  0.51257250  0.50195963  0.49980660     0.82900
O47         O  0.39656737  0.43770235  0.38682818    -0.79300
O48         O  0.42851876  0.61663685  0.41813993    -0.80800
O49         O  0.62679865  0.59323758  0.39022617    -0.80600
O50         O  0.63692166  0.46053751  0.37468417    -0.79200
Zn51       Zn  0.52392015  0.44429660  0.42916701     1.55700
O52         O  0.56884067  0.62377992  0.43273257    -0.80600
Cd53       Cd  0.58280041  0.52570778  0.37233302     1.59700
Cd54       Cd  0.44709695  0.50222083  0.37042096     1.59600
O55         O  0.56186694  0.53071240  0.31916879    -0.80600
O56         O  0.51374404  0.51015490  0.40194424    -1.91100
Cd57       Cd  0.49963108  0.57221657  0.43381844     1.59900
O58         O  0.47516899  0.49370220  0.31858176    -0.80600
O59         O  0.49401960  0.54515542  0.48553087    -0.79200
C60         C  0.40565233  0.40078288  0.40965358     0.83300
C61         C  0.63487197  0.41459890  0.38971950     0.83000
O62         O  0.53002218  0.46220351  0.48129580    -0.78200
C63         C  0.61517686  0.62674901  0.41475780     0.83800
O64         O  0.45261874  0.39827840  0.42627937    -0.78300
C65         C  0.51977170  0.51112806  0.30246618     0.83900
C66         C  0.39466172  0.61175407  0.39221435     0.84300
O67         O  0.39721659  0.57120929  0.37180184    -0.80700
N68         N  0.97327235  0.04783251  0.47804785    -0.03200
C69         C  0.93937065  0.01980601  0.45590101    -0.00600
C70         C  0.93130383  0.04847692  0.42503338    -0.23500
C71         C  0.96088306  0.09560589  0.42822959    -0.23700
C72         C  0.98753497  0.09376983  0.46045352    -0.00700
H73         H  0.90674938  0.03625439  0.40249758     0.13100
H74         H  0.96491121  0.12676177  0.40843852     0.13100
C75         C  0.03520583  0.13040707  0.46893698    -0.03000
C76         C  0.03053125  0.18542517  0.46070440    -0.08800
C77         C  0.07922253  0.21778240  0.45853647    -0.16500
C78         C  0.13332693  0.19563674  0.46445588     0.25700
C79         C  0.13798273  0.14156803  0.47482594    -0.18100
C80         C  0.08912342  0.10915733  0.47724984    -0.07000
C81         C  0.18376205  0.22745230  0.45703345    -0.13500
C82         C  0.22408651  0.25536191  0.44872799    -0.13200
C83         C  0.27056558  0.29022238  0.43784446     0.25600
C84         C  0.32328394  0.28725714  0.45471350    -0.18600
C85         C  0.36759925  0.32229460  0.44496415    -0.07100
C86         C  0.35994353  0.36102730  0.41812844    -0.03200
C87         C  0.30703772  0.36315378  0.40095334    -0.08500
C88         C  0.26279361  0.32801312  0.41073760    -0.16100
H89         H  0.98957476  0.20254062  0.45370632     0.12000
H90         H  0.07492222  0.25942707  0.45045366     0.11300
H91         H  0.17958130  0.12379750  0.47933922     0.11200
H92         H  0.09409933  0.06666040  0.48276195     0.11800
H93         H  0.32995970  0.25827899  0.47570617     0.11800
H94         H  0.40758717  0.31959438  0.45889589     0.11800
H95         H  0.29948854  0.39247924  0.38031481     0.11900
H96         H  0.22222820  0.33077752  0.39741920     0.10800
C97         C  0.91414585  0.96596328  0.46171266    -0.03000
C98         C  0.92331172  0.92646306  0.43589966    -0.08800
C99         C  0.89069390  0.87955944  0.43595096    -0.16500
C100        C  0.84809288  0.87151829  0.46167607     0.25700
C101        C  0.84054042  0.90955478  0.48859533    -0.18100
C102        C  0.87357691  0.95661881  0.48867389    -0.06000
C103        C  0.80934823  0.82675400  0.45819277    -0.13500
C104        C  0.77636210  0.79075673  0.45205333    -0.13200
C105        C  0.73615244  0.74934786  0.44269212     0.25600
C106        C  0.68041400  0.75045793  0.45649763    -0.18600
C107        C  0.64106530  0.71099788  0.44706367    -0.07100
C108        C  0.65666298  0.66975938  0.42344061    -0.03200
C109        C  0.71268725  0.66917162  0.40945896    -0.08500
C110        C  0.75210326  0.70863771  0.41906874    -0.16100
H111        H  0.95401686  0.93316685  0.41467968     0.12000
H112        H  0.89697603  0.85068372  0.41495222     0.11300
H113        H  0.80753342  0.90397294  0.50857975     0.11200
H114        H  0.86511526  0.98701499  0.50841710     0.11800
H115        H  0.66731408  0.78184660  0.47459574     0.11800
H116        H  0.59834908  0.71280586  0.45834760     0.11800
H117        H  0.72625861  0.63790789  0.39142212     0.11900
H118        H  0.79504287  0.70739457  0.40805012     0.10800
C119        C  0.12349652  0.97394391  0.35013076    -0.03000
C120        C  0.11043758  0.93501266  0.37596561    -0.08800
C121        C  0.13802327  0.88515580  0.37575890    -0.16500
C122        C  0.17945944  0.87367558  0.34990783     0.25700
C123        C  0.19132442  0.91168752  0.32327260    -0.18100
C124        C  0.16328794  0.96167094  0.32331571    -0.07000
C125        C  0.21273450  0.82488992  0.35283549    -0.13500
C126        C  0.24174703  0.78555986  0.35850022    -0.13200
C127        C  0.27805634  0.74068044  0.36769403     0.25600
C128        C  0.28056428  0.69488777  0.34644791    -0.18600
C129        C  0.31739621  0.65236934  0.35491304    -0.07100
C130        C  0.35243626  0.65504565  0.38478362    -0.03200
C131        C  0.34873145  0.70083382  0.40633196    -0.08500
C132        C  0.31182882  0.74323609  0.39783124    -0.16100
H133        H  0.08019520  0.94400727  0.39704389     0.12000
H134        H  0.12859186  0.85634309  0.39657340     0.11300
H135        H  0.22361513  0.90345533  0.30325861     0.11200
H136        H  0.17456743  0.99155570  0.30354407     0.11800
H137        H  0.25458886  0.69229959  0.32309622     0.11800
H138        H  0.31913624  0.61784548  0.33768770     0.11800
H139        H  0.37501359  0.70432807  0.42948011     0.11900
H140        H  0.31018907  0.77837289  0.41455603     0.10800
C141        C  0.68094264  0.37522652  0.38112254    -0.03000
C142        C  0.67991284  0.32226234  0.39443937    -0.08800
C143        C  0.72321280  0.28558906  0.38509867    -0.16500
C144        C  0.76796627  0.30133097  0.36232776     0.25700
C145        C  0.76912096  0.35381154  0.34895111    -0.18100
C146        C  0.72612113  0.39037172  0.35819567    -0.07000
C147        C  0.81400386  0.26472827  0.35352254    -0.13500
C148        C  0.85502468  0.23661394  0.34705145    -0.13200
C149        C  0.90631659  0.20495219  0.34198339     0.25600
C150        C  0.95944201  0.22705468  0.35007008    -0.18600
C151        C  0.00852099  0.19484432  0.34974654    -0.07100
C152        C  0.00524337  0.14005696  0.34114122    -0.03200
C153        C  0.95232673  0.11880393  0.33111200    -0.08500
C154        C  0.90312241  0.15105910  0.33164828    -0.16100
H155        H  0.64569445  0.30916263  0.41193191     0.12000
H156        H  0.72192074  0.24507210  0.39575832     0.11300
H157        H  0.80351564  0.36664650  0.33146466     0.11200
H158        H  0.72839338  0.43067303  0.34727564     0.11800
H159        H  0.96255926  0.26864130  0.35815223     0.11800
H160        H  0.04859483  0.21204872  0.35794703     0.11800
H161        H  0.94817588  0.07641959  0.32536588     0.11900
H162        H  0.86227422  0.13334565  0.32553469     0.10800
C163        C  0.47845836  0.52621635  0.01129060    -0.03000
C164        C  0.43596702  0.52440724  0.03783999    -0.08800
C165        C  0.45036008  0.51605257  0.07302049    -0.16500
C166        C  0.50750729  0.50954661  0.08238565     0.25700
C167        C  0.55020890  0.50960505  0.05605862    -0.18100
C168        C  0.53572426  0.51760713  0.02061766    -0.07000
C169        C  0.52139942  0.50523116  0.11924483    -0.13500
C170        C  0.52677462  0.50387593  0.15087905    -0.13200
C171        C  0.52664223  0.50390650  0.18894678     0.25600
C172        C  0.57256329  0.52534881  0.20741904    -0.18600
C173        C  0.57064346  0.52748796  0.24435478    -0.07100
C174        C  0.52258228  0.50835664  0.26332105    -0.03200
C175        C  0.47694921  0.48642362  0.24444231    -0.08500
C176        C  0.47900319  0.48430306  0.20760074    -0.16100
H177        H  0.39165449  0.53160735  0.03149988     0.12000
H178        H  0.41693125  0.51615566  0.09308672     0.11300
H179        H  0.59462853  0.50441791  0.06296098     0.11200
H180        H  0.56918060  0.51799466  0.00064309     0.11800
H181        H  0.60957158  0.54086256  0.19329523     0.11800
H182        H  0.60660056  0.54447497  0.25801787     0.11800
H183        H  0.43939421  0.47117381  0.25809351     0.11900
H184        H  0.44306584  0.46781462  0.19361666     0.10800
C185        C  0.86416883  0.84488525  0.92711681    -0.03000
C186        C  0.86985188  0.80940433  0.95600127    -0.08800
C187        C  0.82624989  0.77305883  0.96482180    -0.16500
C188        C  0.77638607  0.77154558  0.94492042     0.25700
C189        C  0.77057898  0.80630538  0.91598230    -0.18100
C190        C  0.81401326  0.84270673  0.90714701    -0.07000
C191        C  0.73112383  0.73433160  0.95382328    -0.13500
C192        C  0.69177103  0.70380823  0.95895488    -0.13200
C193        C  0.64324578  0.66821977  0.96117519     0.25600
C194        C  0.60267005  0.67283663  0.98862596    -0.18600
C195        C  0.55264233  0.64192793  0.98828645    -0.07100
C196        C  0.54292987  0.60641089  0.96041559    -0.03200
C197        C  0.58446936  0.60086029  0.93360918    -0.08500
C198        C  0.63440922  0.63135166  0.93408100    -0.16100
H199        H  0.90772588  0.81011268  0.97206640     0.12000
H200        H  0.83134883  0.74634255  0.98722845     0.11300
H201        H  0.73225944  0.80545106  0.90028945     0.11200
H202        H  0.80807969  0.86939304  0.88482821     0.11800
H203        H  0.60880159  0.70152649  0.00960728     0.11800
H204        H  0.52053084  0.64739919  0.00880487     0.11800
H205        H  0.57725775  0.57414259  0.91165778     0.11900
H206        H  0.66518403  0.62756318  0.91261886     0.10800
C207        C  0.37927354  0.47859581  0.96625605    -0.03000
C208        C  0.32029106  0.47923986  0.95976918    -0.08800
C209        C  0.28975767  0.43116725  0.95753346    -0.16500
C210        C  0.31765353  0.38170820  0.96174672     0.25700
C211        C  0.37576558  0.38079497  0.97014613    -0.18100
C212        C  0.40640945  0.42897528  0.97248477    -0.07000
C213        C  0.28726502  0.33236448  0.95507042    -0.13500
C214        C  0.25973957  0.29293269  0.94788207    -0.13200
C215        C  0.22354075  0.24808952  0.93911115     0.25600
C216        C  0.24109749  0.20981141  0.91414140    -0.18600
C217        C  0.20505556  0.16693640  0.90555084    -0.07100
C218        C  0.15090709  0.16186726  0.92184977    -0.03200
C219        C  0.13376392  0.20081528  0.94673459    -0.08500
C220        C  0.16970522  0.24340787  0.95523169    -0.16100
H221        H  0.29844771  0.51686239  0.95462057     0.12000
H222        H  0.24484717  0.43253796  0.95107080     0.11300
H223        H  0.39794596  0.34283543  0.97337014     0.11200
H224        H  0.45201772  0.42717820  0.97670475     0.11800
H225        H  0.28261206  0.21308640  0.90132496     0.11800
H226        H  0.21965508  0.13770920  0.88637413     0.11800
H227        H  0.09246097  0.19837439  0.95987016     0.11900
H228        H  0.15540282  0.27277434  0.97443576     0.10800
C229        C  0.01587497  0.99581125  0.76829168    -0.03000
C230        C  0.97409787  0.96692249  0.75001776    -0.08800
C231        C  0.97280150  0.96817679  0.71312995    -0.16500
C232        C  0.01304878  0.99840092  0.69395641     0.25700
C233        C  0.05502590  0.02691940  0.71187238    -0.18100
C234        C  0.05660307  0.02551127  0.74875790    -0.07000
C235        C  0.01004254  0.00172771  0.65602489    -0.13500
C236        C  0.00615989  0.00687448  0.62445066    -0.13200
C237        C  0.99953868  0.01673585  0.58719145     0.25600
C238        C  0.00818560  0.97552224  0.56257504    -0.18600
C239        C  0.00030404  0.98554320  0.52651244    -0.07100
C240        C  0.98369720  0.03689766  0.51480161    -0.03200
C241        C  0.97565293  0.07800368  0.53968403    -0.08500
C242        C  0.98346840  0.06799880  0.57556462    -0.16100
H243        H  0.94222858  0.94354947  0.76420475     0.12000
H244        H  0.93999434  0.94603544  0.69958051     0.11300
H245        H  0.08621064  0.05068954  0.69734970     0.11200
H246        H  0.08914508  0.04840387  0.76198575     0.11800
H247        H  0.02073614  0.93565377  0.57126348     0.11800
H248        H  0.00724549  0.95344641  0.50780580     0.11800
H249        H  0.96222046  0.11773521  0.53130459     0.11900
H250        H  0.97647968  0.10016235  0.59427468     0.10800
C251        C  0.01652130  0.00366532  0.04382549    -0.03000
C252        C  0.99607566  0.04909932  0.06208687    -0.08800
C253        C  0.99865159  0.05127186  0.09891611    -0.16500
C254        C  0.02161284  0.00814426  0.11801619     0.25700
C255        C  0.04199070  0.96280634  0.10011556    -0.18100
C256        C  0.03944240  0.96050692  0.06332105    -0.07000
C257        C  0.02541249  0.01096056  0.15587786    -0.13500
C258        C  0.02997111  0.01542840  0.18739571    -0.13200
C259        C  0.03756705  0.02516058  0.22446480     0.25600
C260        C  0.02928271  0.98414532  0.24958328    -0.18600
C261        C  0.03801625  0.99432097  0.28545728    -0.07100
C262        C  0.05526578  0.04557283  0.29639860    -0.03200
C263        C  0.06300847  0.08639130  0.27098976    -0.08500
C264        C  0.05419919  0.07628239  0.23535493    -0.16100
H265        H  0.97829802  0.08305158  0.04794867     0.12000
H266        H  0.98297020  0.08670900  0.11248112     0.11300
H267        H  0.06009680  0.92929703  0.11458325     0.11200
H268        H  0.05570842  0.92497857  0.05015437     0.11800
H269        H  0.01630014  0.94441603  0.24145175     0.11800
H270        H  0.03117930  0.96242849  0.30460894     0.11800
H271        H  0.07688037  0.12599319  0.27876308     0.11900
H272        H  0.06088394  0.10830388  0.21621850     0.10800
C273        C  0.48315389  0.46774385  0.79379076    -0.03000
C274        C  0.51711782  0.50961534  0.78025617    -0.08800
C275        C  0.52571810  0.51505599  0.74371471    -0.16500
C276        C  0.50062365  0.47850286  0.72057480     0.25700
C277        C  0.46724869  0.43642410  0.73414031    -0.18100
C278        C  0.45859412  0.43110026  0.77049619    -0.07000
C279        C  0.50812749  0.48410492  0.68290218    -0.13500
C280        C  0.51183568  0.48736333  0.65115344    -0.13200
C281        C  0.51372206  0.49100257  0.61316038     0.25600
C282        C  0.52164150  0.44471207  0.59277842    -0.18600
C283        C  0.52182262  0.44818766  0.55588371    -0.07100
C284        C  0.51363403  0.49804685  0.53887598    -0.03200
C285        C  0.50595848  0.54432579  0.55962968    -0.08500
C286        C  0.50613359  0.54079125  0.59646217    -0.16100
H287        H  0.53709208  0.53772420  0.79788291     0.12000
H288        H  0.55173424  0.54770515  0.73353033     0.11300
H289        H  0.44755099  0.40792979  0.71658568     0.11200
H290        H  0.43215894  0.39872162  0.78063923     0.11800
H291        H  0.52731758  0.40589075  0.60539180     0.11800
H292        H  0.52764271  0.41179335  0.54070538     0.11800
H293        H  0.49985451  0.58335750  0.54740872     0.11900
H294        H  0.49990770  0.57688709  0.61192458     0.10800
C295        C  0.53474145  0.38195648  0.84452796    -0.03000
C296        C  0.58833836  0.40282106  0.83447205    -0.08800
C297        C  0.63745579  0.37042793  0.83620651    -0.16500
C298        C  0.63331324  0.31686760  0.84778121     0.25700
C299        C  0.57961859  0.29520825  0.85586147    -0.18100
C300        C  0.53076846  0.32742734  0.85426914    -0.07000
C301        C  0.68371743  0.28455734  0.85364757    -0.13500
C302        C  0.72267189  0.25445372  0.86060756    -0.13200
C303        C  0.76568922  0.21501477  0.86945834     0.25600
C304        C  0.76745716  0.16602815  0.85156239    -0.18600
C305        C  0.80792427  0.12690097  0.86033523    -0.07100
C306        C  0.84749685  0.13599294  0.88728561    -0.03200
C307        C  0.84528188  0.18530712  0.90532748    -0.08500
C308        C  0.80459059  0.22449985  0.89647687    -0.16100
H309        H  0.59278228  0.44483976  0.82740824     0.12000
H310        H  0.67878189  0.38770287  0.82984325     0.11300
H311        H  0.57570433  0.25383608  0.86466100     0.11200
H312        H  0.49000435  0.31016358  0.86195194     0.11800
H313        H  0.73742392  0.15799403  0.83076878     0.11800
H314        H  0.80834110  0.08957524  0.84579754     0.11800
H315        H  0.87517005  0.19374549  0.92609949     0.11900
H316        H  0.80347722  0.26212338  0.91069823     0.10800
C317        C  0.18028607  0.85892821  0.88932136    -0.03000
C318        C  0.18461915  0.81253017  0.91060434    -0.08800
C319        C  0.22231330  0.77087429  0.90134913    -0.16500
C320        C  0.25618418  0.77473493  0.87065581     0.25700
C321        C  0.25341983  0.82139944  0.84988465    -0.18100
C322        C  0.21597238  0.86322719  0.85917453    -0.07000
C323        C  0.29128148  0.72965137  0.85966076    -0.13500
C324        C  0.31745114  0.68956682  0.85122155    -0.13200
C325        C  0.34478334  0.63859628  0.84355990     0.25600
C326        C  0.31178988  0.59177654  0.84281771    -0.18600
C327        C  0.33814143  0.54133339  0.84059472    -0.07100
C328        C  0.39796484  0.53687856  0.83897588    -0.03200
C329        C  0.43080356  0.58408282  0.83765121    -0.08500
C330        C  0.40433415  0.63469574  0.83990866    -0.16100
H331        H  0.15801717  0.80788366  0.93402231     0.12000
H332        H  0.22402291  0.73505537  0.91771704     0.11300
H333        H  0.27927080  0.82498805  0.82605630     0.11200
H334        H  0.21373454  0.89822007  0.84210878     0.11800
H335        H  0.26572580  0.59407721  0.84574028     0.11800
H336        H  0.31196815  0.50557380  0.84233219     0.11800
H337        H  0.47694385  0.58186026  0.83810639     0.11900
H338        H  0.43047487  0.67046570  0.84082453     0.10800
loop_ 
_geom_bond_atom_site_label_1 
_geom_bond_atom_site_label_2 
_geom_bond_distance 
_geom_bond_site_symmetry_2 
_ccdc_geom_bond_type 
N1            C5   1.358       .  A
N1            C2   1.360       .  A
N1          C273   1.437       .  S
C2            C3   1.383       .  A
C2          C295   1.485       .  S
C3            C4   1.369       .  A
C3            H6   1.082       .  S
C4            C5   1.380       .  A
C4            H7   1.079       .  S
C5          C328   1.483       .  S
O8           C24   1.278       .  A
O8          Zn14   2.044       .  S
C9          C251   1.485       .  S
C9           O25   1.278   1_454  A
C9           O22   1.277   1_544  A
O10          C23   1.279       .  A
O10         Cd17   2.100       .  S
O11          C29   1.279       .  A
O11         Cd20   2.088       .  S
O12          C26   1.277       .  A
O12         Cd16   2.078       .  S
O13          C24   1.275       .  A
O13         Cd16   2.066   1_545  S
Zn14         O25   2.032       .  S
Zn14         O27   2.007   1_655  S
Zn14         O19   1.939   1_645  S
O15          C26   1.276       .  A
O15         Cd20   2.080   1_655  S
Cd16         O18   2.070       .  S
Cd16         O19   1.988   1_655  S
Cd17         O21   2.084       .  S
Cd17         O30   2.083   1_545  S
Cd17         O19   2.001   1_545  S
O18          C28   1.277   1_655  A
O19         Cd20   1.993       .  S
Cd20         O22   2.069       .  S
O21          C28   1.279   1_545  A
C23         C218   1.489       .  S
C23          O27   1.274       .  A
C24         C306   1.488       .  S
C26         C185   1.487       .  S
C28         C229   1.484       .  S
C29         C317   1.490       .  S
C29          O30   1.277       .  A
N31          C35   1.360       .  A
N31          C32   1.360       .  A
N31         C163   1.444   1_556  S
C32          C33   1.383       .  A
C32         C207   1.486       .  S
C33          C34   1.371       .  A
C33          H36   1.080       .  S
C34          C35   1.378       .  A
C34          H37   1.081       .  S
C35         C196   1.476       .  S
N38          C42   1.359       .  A
N38          C39   1.358       .  A
N38         C262   1.442       .  S
C39          C40   1.381       .  A
C39         C152   1.485       .  S
C40          C41   1.372       .  A
C40          H43   1.078       .  S
C41          C42   1.381       .  A
C41          H44   1.082       .  S
C42         C119   1.477   1_545  S
O45          C61   1.280       .  A
O45         Zn51   2.059       .  S
C46         C284   1.484       .  S
C46          O62   1.279       .  A
C46          O59   1.278       .  A
O47          C60   1.277       .  A
O47         Cd54   2.083       .  S
O48          C66   1.278       .  A
O48         Cd57   2.087       .  S
O49          C63   1.279       .  A
O49         Cd53   2.095       .  S
O50          C61   1.274       .  A
O50         Cd53   2.056       .  S
Zn51         O62   2.036       .  S
Zn51         O64   2.032       .  S
Zn51         O56   1.946       .  S
O52          C63   1.275       .  A
O52         Cd57   2.070       .  S
Cd53         O55   2.084       .  S
Cd53         O56   1.993       .  S
Cd54         O58   2.075       .  S
Cd54         O67   2.073       .  S
Cd54         O56   1.990       .  S
O55          C65   1.279       .  A
O56         Cd57   1.990       .  S
Cd57         O59   2.071       .  S
O58          C65   1.278       .  A
C60          C86   1.490       .  S
C60          O64   1.277       .  A
C61         C141   1.489       .  S
C63         C108   1.489       .  S
C65         C174   1.487       .  S
C66         C130   1.488       .  S
C66          O67   1.276       .  A
N68          C72   1.359       .  A
N68          C69   1.361       .  A
N68         C240   1.442       .  S
C69          C70   1.381       .  A
C69          C97   1.479   1_545  S
C70          C71   1.370       .  A
C70          H73   1.082       .  S
C71          C72   1.380       .  A
C71          H74   1.079       .  S
C72          C75   1.483   1_655  S
C75          C76   1.406       .  A
C75          C80   1.406       .  A
C76          C77   1.399       .  A
C76          H89   1.084   1_455  S
C77          C78   1.400       .  A
C77          H90   1.083       .  S
C78          C79   1.403       .  A
C78          C81   1.447       .  S
C79          C80   1.403       .  A
C79          H91   1.084       .  S
C80          H92   1.082       .  S
C81          C82   1.211       .  T
C82          C83   1.447       .  S
C83          C84   1.400       .  A
C83          C88   1.402       .  A
C84          C85   1.401       .  A
C84          H93   1.083       .  S
C85          C86   1.410       .  A
C85          H94   1.083       .  S
C86          C87   1.408       .  A
C87          C88   1.402       .  A
C87          H95   1.082       .  S
C88          H96   1.084       .  S
C97          C98   1.405       .  A
C97         C102   1.404       .  A
C98          C99   1.396       .  A
C98         H111   1.084       .  S
C99         C100   1.399       .  A
C99         H112   1.084       .  S
C100        C101   1.405       .  A
C100        C103   1.446       .  S
C101        C102   1.405       .  A
C101        H113   1.083       .  S
C102        H114   1.083       .  S
C103        C104   1.210       .  T
C104        C105   1.447       .  S
C105        C106   1.399       .  A
C105        C110   1.402       .  A
C106        C107   1.400       .  A
C106        H115   1.083       .  S
C107        C108   1.410       .  A
C107        H116   1.083       .  S
C108        C109   1.408       .  A
C109        C110   1.403       .  A
C109        H117   1.083       .  S
C110        H118   1.084       .  S
C119        C120   1.404       .  A
C119        C124   1.403       .  A
C120        C121   1.396       .  A
C120        H133   1.084       .  S
C121        C122   1.399       .  A
C121        H134   1.083       .  S
C122        C123   1.404       .  A
C122        C125   1.444       .  S
C123        C124   1.404       .  A
C123        H135   1.083       .  S
C124        H136   1.083       .  S
C125        C126   1.209       .  T
C126        C127   1.445       .  S
C127        C128   1.400       .  A
C127        C132   1.401       .  A
C128        C129   1.401       .  A
C128        H137   1.084       .  S
C129        C130   1.410       .  A
C129        H138   1.082       .  S
C130        C131   1.407       .  A
C131        C132   1.400       .  A
C131        H139   1.083       .  S
C132        H140   1.083       .  S
C141        C142   1.408       .  A
C141        C146   1.410       .  A
C142        C143   1.405       .  A
C142        H155   1.082       .  S
C143        C144   1.403       .  A
C143        H156   1.084       .  S
C144        C145   1.397       .  A
C144        C147   1.445       .  S
C145        C146   1.397       .  A
C145        H157   1.083       .  S
C146        H158   1.083       .  S
C147        C148   1.209       .  T
C148        C149   1.445       .  S
C149        C150   1.400       .  A
C149        C154   1.401       .  A
C150        C151   1.399   1_655  A
C150        H159   1.084       .  S
C151        C152   1.406       .  A
C151        H160   1.083       .  S
C152        C153   1.407   1_455  A
C153        C154   1.402       .  A
C153        H161   1.083       .  S
C154        H162   1.083       .  S
C163        C164   1.406       .  A
C163        C168   1.407       .  A
C164        C165   1.395       .  A
C164        H177   1.083       .  S
C165        C166   1.398       .  A
C165        H178   1.084       .  S
C166        C167   1.403       .  A
C166        C169   1.443       .  S
C167        C168   1.403       .  A
C167        H179   1.083       .  S
C168        H180   1.082       .  S
C169        C170   1.208       .  T
C170        C171   1.443       .  S
C171        C172   1.400       .  A
C171        C176   1.399       .  A
C172        C173   1.402       .  A
C172        H181   1.083       .  S
C173        C174   1.409       .  A
C173        H182   1.083       .  S
C174        C175   1.408       .  A
C175        C176   1.398       .  A
C175        H183   1.082       .  S
C176        H184   1.084       .  S
C185        C186   1.410       .  A
C185        C190   1.408       .  A
C186        C187   1.401       .  A
C186        H199   1.083       .  S
C187        C188   1.400       .  A
C187        H200   1.083       .  S
C188        C189   1.400       .  A
C188        C191   1.444       .  S
C189        C190   1.399       .  A
C189        H201   1.084       .  S
C190        H202   1.082       .  S
C191        C192   1.209       .  T
C192        C193   1.444       .  S
C193        C194   1.404       .  A
C193        C198   1.399       .  A
C194        C195   1.403       .  A
C194        H203   1.083   1_556  S
C195        C196   1.403       .  A
C195        H204   1.083   1_556  S
C196        C197   1.404       .  A
C197        C198   1.396       .  A
C197        H205   1.084       .  S
C198        H206   1.083       .  S
C207        C208   1.406       .  A
C207        C212   1.406       .  A
C208        C209   1.399       .  A
C208        H221   1.083       .  S
C209        C210   1.400       .  A
C209        H222   1.084       .  S
C210        C211   1.402       .  A
C210        C213   1.446       .  S
C211        C212   1.403       .  A
C211        H223   1.083       .  S
C212        H224   1.083       .  S
C213        C214   1.210       .  T
C214        C215   1.446       .  S
C215        C216   1.403       .  A
C215        C220   1.398       .  A
C216        C217   1.405       .  A
C216        H225   1.084       .  S
C217        C218   1.408       .  A
C217        H226   1.082       .  S
C218        C219   1.410       .  A
C219        C220   1.397       .  A
C219        H227   1.083       .  S
C220        H228   1.083       .  S
C229        C230   1.408   1_455  A
C229        C234   1.407   1_565  A
C230        C231   1.399       .  A
C230        H243   1.082       .  S
C231        C232   1.400   1_655  A
C231        H244   1.084       .  S
C232        C233   1.400   1_565  A
C232        C235   1.443   1_565  S
C233        C234   1.400       .  A
C233        H245   1.083       .  S
C234        H246   1.083       .  S
C235        C236   1.208       .  T
C236        C237   1.443   1_455  S
C237        C238   1.403   1_645  A
C237        C242   1.399       .  A
C238        C239   1.403       .  A
C238        H247   1.084       .  S
C239        C240   1.405   1_465  A
C239        H248   1.082       .  S
C240        C241   1.406       .  A
C241        C242   1.396       .  A
C241        H249   1.083       .  S
C242        H250   1.083       .  S
C251        C252   1.408   1_455  A
C251        C256   1.409   1_545  A
C252        C253   1.400       .  A
C252        H265   1.083       .  S
C253        C254   1.401   1_655  A
C253        H266   1.084       .  S
C254        C255   1.399   1_545  A
C254        C257   1.442       .  S
C255        C256   1.399       .  A
C255        H267   1.083       .  S
C256        H268   1.083       .  S
C257        C258   1.207       .  T
C258        C259   1.441       .  S
C259        C260   1.403   1_545  A
C259        C264   1.398       .  A
C260        C261   1.403       .  A
C260        H269   1.083       .  S
C261        C262   1.405   1_565  A
C261        H270   1.083       .  S
C262        C263   1.405       .  A
C263        C264   1.394       .  A
C263        H271   1.082       .  S
C264        H272   1.084       .  S
C273        C274   1.403       .  A
C273        C278   1.403       .  A
C274        C275   1.403       .  A
C274        H287   1.082       .  S
C275        C276   1.404       .  A
C275        H288   1.083       .  S
C276        C277   1.399       .  A
C276        C279   1.442       .  S
C277        C278   1.396       .  A
C277        H289   1.084       .  S
C278        H290   1.083       .  S
C279        C280   1.208       .  T
C280        C281   1.443       .  S
C281        C282   1.401       .  A
C281        C286   1.399       .  A
C282        C283   1.401       .  A
C282        H291   1.083       .  S
C283        C284   1.408       .  A
C283        H292   1.083       .  S
C284        C285   1.408       .  A
C285        C286   1.399       .  A
C285        H293   1.083       .  S
C286        H294   1.084       .  S
C295        C296   1.406       .  A
C295        C300   1.406       .  A
C296        C297   1.404       .  A
C296        H309   1.082       .  S
C297        C298   1.403       .  A
C297        H310   1.083       .  S
C298        C299   1.399       .  A
C298        C301   1.445       .  S
C299        C300   1.396       .  A
C299        H311   1.083       .  S
C300        H312   1.083       .  S
C301        C302   1.209       .  T
C302        C303   1.445       .  S
C303        C304   1.399       .  A
C303        C308   1.402       .  A
C304        C305   1.398       .  A
C304        H313   1.084       .  S
C305        C306   1.409       .  A
C305        H314   1.083       .  S
C306        C307   1.409       .  A
C307        C308   1.403       .  A
C307        H315   1.083       .  S
C308        H316   1.083       .  S
C317        C318   1.408       .  A
C317        C322   1.410       .  A
C318        C319   1.402       .  A
C318        H331   1.083       .  S
C319        C320   1.402       .  A
C319        H332   1.083       .  S
C320        C321   1.400       .  A
C320        C323   1.448       .  S
C321        C322   1.402       .  A
C321        H333   1.084       .  S
C322        H334   1.083       .  S
C323        C324   1.211       .  T
C324        C325   1.447       .  S
C325        C326   1.400       .  A
C325        C330   1.402       .  A
C326        C327   1.399       .  A
C326        H335   1.084       .  S
C327        C328   1.405       .  A
C327        H336   1.083       .  S
C328        C329   1.406       .  A
C329        C330   1.404       .  A
C329        H337   1.082       .  S
C330        H338   1.083       .  S
