geometry optimzed in LAMMPS
_audit_creation_date              2020-12-01 
_audit_creation_method            'lammps2cif' 
_symmetry_space_group_name_H-M    'P1' 
_symmetry_Int_Tables_number       1 
_symmetry_cell_setting            triclinic 
loop_ 
_symmetry_equiv_pos_as_xyz 
  x,y,z 
_cell_length_a                    30.28710621 
_cell_length_b                    30.279183062047835 
_cell_length_c                    38.87583811799517 
_cell_angle_alpha                 89.92711169373344 
_cell_angle_beta                  90.10048578034412 
_cell_angle_gamma                 120.01852965359885 
loop_ 
_atom_site_label 
_atom_site_type_symbol 
_atom_site_fract_x 
_atom_site_fract_y 
_atom_site_fract_z 
_atom_site_charge 
O1          O  0.65281247  0.69403644  0.35103216    -0.71500
O2          O  0.77618905  0.82150546  0.35492065    -0.71700
O3          O  0.69852973  0.77755458  0.31048823    -0.71600
O4          O  0.73132301  0.73893525  0.39575048    -0.71600
O5          O  0.76990465  0.70571693  0.36844298    -0.71600
O6          O  0.73768121  0.74478785  0.28327053    -0.71600
O7          O  0.81479125  0.78801557  0.32770869    -0.71500
O8          O  0.69207652  0.66152920  0.32369201    -0.71700
V9          V  0.71525077  0.75716853  0.35257952     1.35200
V10         V  0.75268190  0.72547574  0.32635847     1.35200
C11         C  0.65132754  0.65597681  0.33639751     0.77700
C12         C  0.81641785  0.82656010  0.34145528     0.77800
C13         C  0.71398294  0.76927856  0.28229448     0.77600
C14         C  0.75726084  0.71674009  0.39679256     0.77600
O15         O  0.28258820  0.31874776  0.31748467    -0.71500
O16         O  0.15502584  0.19560585  0.31749020    -0.71700
O17         O  0.20054445  0.27694955  0.35906630    -0.71600
O18         O  0.23615535  0.23693234  0.27591253    -0.71600
O19         O  0.27140738  0.20152176  0.30504701    -0.71600
O20         O  0.23253918  0.23863564  0.38837436    -0.71600
O21         O  0.18917249  0.15842143  0.34576295    -0.71500
O22         O  0.31538885  0.28203167  0.34777848    -0.71700
V23         V  0.21936857  0.25650198  0.31805692     1.35200
V24         V  0.25157235  0.22096458  0.34617727     1.35200
C25         C  0.32063909  0.32152457  0.33302666     0.77700
C26         C  0.15058977  0.15571399  0.33124567     0.77800
C27         C  0.20943786  0.26375326  0.38797180     0.77600
C28         C  0.25935920  0.21194424  0.27623628     0.77600
O29         O  0.96697211  0.67739923  0.68283829    -0.71500
O30         O  0.96721659  0.80304999  0.67917055    -0.71700
O31         O  0.92767052  0.71898815  0.64033611    -0.71600
O32         O  0.00639579  0.76213897  0.72224616    -0.71600
O33         O  0.07586973  0.79225426  0.69232972    -0.71600
O34         O  0.99702937  0.75574279  0.60998423    -0.71600
O35         O  0.03911817  0.83732874  0.65142778    -0.71500
O36         O  0.03436545  0.71000212  0.65071093    -0.71700
V37         V  0.96843771  0.74091991  0.68063977     1.35200
V38         V  0.03525669  0.77299170  0.65168112     1.35200
C39         C  0.00004381  0.67184161  0.66654844     0.77700
C40         C  0.00368598  0.84167510  0.66501122     0.77800
C41         C  0.94875847  0.73142519  0.61118930     0.77600
C42         C  0.05461134  0.78515549  0.72139412     0.77600
O43         O  0.03555042  0.33544703  0.68249051    -0.71500
O44         O  0.04232366  0.21376972  0.67678282    -0.71700
O45         O  0.07022625  0.29423218  0.63573388    -0.71600
O46         O  0.00776947  0.25406974  0.72365132    -0.71600
O47         O  0.93305570  0.22047089  0.69987609    -0.71600
O48         O  0.99586914  0.25069261  0.61165072    -0.71600
O49         O  0.96498410  0.17390353  0.65655235    -0.71500
O50         O  0.96357852  0.29839941  0.65486561    -0.71700
V51         V  0.03754203  0.27386707  0.67925447     1.35200
V52         V  0.96577712  0.23684362  0.65615479     1.35200
C53         C  0.99867251  0.33787176  0.66922813     0.77700
C54         C  0.00436286  0.17300373  0.66613988     0.77800
C55         C  0.04388261  0.27688148  0.60867690     0.77600
C56         C  0.95978816  0.22941727  0.72680653     0.77600
O57         O  0.68313080  0.97717687  0.99158972    -0.71500
O58         O  0.80391263  0.96883687  0.99339317    -0.71700
O59         O  0.72297466  0.93623298  0.03472146    -0.71600
O60         O  0.76472871  0.00947365  0.95036977    -0.71600
O61         O  0.80155065  0.08086659  0.97842747    -0.71600
O62         O  0.76349029  0.00729161  0.06297197    -0.71600
O63         O  0.84313249  0.04111374  0.02026096    -0.71500
O64         O  0.72103458  0.04729255  0.02111727    -0.71700
V65         V  0.74426778  0.97430722  0.99309136     1.35200
V66         V  0.78138469  0.04277822  0.02018758     1.35200
C67         C  0.68137567  0.01364335  0.00607192     0.77700
C68         C  0.84439980  0.00380670  0.00672958     0.77800
C69         C  0.73750960  0.95903108  0.06327617     0.77600
C70         C  0.79086338  0.05769046  0.94989369     0.77600
O71         O  0.31222578  0.98006504  0.00674333    -0.71500
O72         O  0.18376616  0.97342817  0.00906463    -0.71700
O73         O  0.23083210  0.94349764  0.96433623    -0.71600
O74         O  0.26392333  0.00952144  0.05125281    -0.71600
O75         O  0.29763355  0.08305467  0.02599049    -0.71600
O76         O  0.26341480  0.01689130  0.93893023    -0.71600
O77         O  0.21720289  0.04721342  0.98397579    -0.71500
O78         O  0.34521159  0.05320935  0.98104444    -0.71700
V79         V  0.24854556  0.97802247  0.00731524     1.35200
V80         V  0.28042393  0.04866215  0.98292540     1.35200
C81         C  0.35094892  0.01799984  0.99374893     0.77700
C82         C  0.17867180  0.00947159  0.99708451     0.77800
C83         C  0.23960972  0.96876581  0.93675442     0.77600
C84         C  0.28489463  0.05744206  0.05361237     0.77600
C85         C  0.12918819  0.00786769  0.99925713    -0.11700
C86         C  0.11542778  0.03511761  0.97616056     0.03800
C87         C  0.06847117  0.03279048  0.97973596    -0.12200
C88         C  0.03486412  0.00410177  0.00605703     0.18600
C89         C  0.04821284  0.97702979  0.02916293    -0.09300
C90         C  0.09499512  0.97884865  0.02555619    -0.02200
H91         H  0.05789877  0.05330975  0.96174870     0.05200
C92         C  0.98543192  0.00201110  0.00809606     0.20600
H93         H  0.10490613  0.95799064  0.04368756     0.10300
C94         C  0.94572251  0.96803222  0.98674736    -0.15600
C95         C  0.89936135  0.96752349  0.98576822     0.03300
C96         C  0.89217098  0.00155730  0.00687307    -0.10900
C97         C  0.93236089  0.03532638  0.02844898    -0.01000
C98         C  0.97873752  0.03590483  0.02903005    -0.06100
H99         H  0.95132560  0.94251037  0.97015942     0.06300
H100        H  0.92801542  0.06184074  0.04479884     0.09700
Br101      Br  0.00369759  0.93729975  0.06586307    -0.05800
Br102      Br  0.15717933  0.07434048  0.93818861    -0.02800
Br103      Br  0.84965554  0.92137247  0.95340780     0.00100
Br104      Br  0.03254591  0.08464564  0.05786625    -0.04300
C105        C  0.40132695  0.02051941  0.99390575    -0.11700
C106        C  0.44723848  0.06393093  0.98284759     0.03800
C107        C  0.49335178  0.06368467  0.98453246    -0.12200
C108        C  0.49489037  0.02104419  0.99689191     0.18600
C109        C  0.44968172  0.97803432  0.00785597    -0.09300
C110        C  0.40361237  0.97797740  0.00629047    -0.02200
H111        H  0.52826797  0.09693059  0.97610665     0.05200
C112        C  0.54386322  0.02166398  0.99826139     0.20600
H113        H  0.36938181  0.94425616  0.01498481     0.10300
C114        C  0.57599740  0.04341622  0.02672705    -0.15600
C115        C  0.62096176  0.04130245  0.03002390     0.03300
C116        C  0.63440314  0.01719538  0.00427113    -0.10900
C117        C  0.60209687  0.99587877  0.97565496    -0.01000
C118        C  0.55730832  0.99811613  0.97247295    -0.06100
H119        H  0.56535766  0.06099351  0.04687432     0.06300
H120        H  0.61183346  0.97759672  0.95548089     0.09700
Br121      Br  0.44930069  0.91865410  0.02555348    -0.05800
Br122      Br  0.45107757  0.12528374  0.96560360    -0.02800
Br123      Br  0.65989555  0.06866480  0.07143554     0.00100
Br124      Br  0.51533343  0.96826856  0.93261512    -0.04300
C125        C  0.93530800  0.20959695  0.76079829    -0.11700
C126        C  0.95914117  0.19614931  0.78690923     0.03800
C127        C  0.93293628  0.17350192  0.81737147    -0.12200
C128        C  0.88302149  0.16348880  0.82261386     0.18600
C129        C  0.85944903  0.17763065  0.79711132    -0.09300
C130        C  0.88545433  0.20025037  0.76649174    -0.02200
H131        H  0.95113872  0.16231200  0.83680879     0.05200
C132        C  0.85566157  0.13590685  0.85415957     0.20600
H133        H  0.86631299  0.20996165  0.74686038     0.10300
C134        C  0.85042762  0.16280014  0.88168092    -0.15600
C135        C  0.82807207  0.13819050  0.91277876     0.03300
C136        C  0.81057113  0.08543705  0.91674244    -0.10900
C137        C  0.81447324  0.05851508  0.88850672    -0.01000
C138        C  0.83687012  0.08323476  0.85760075    -0.06100
H139        H  0.86444515  0.20331245  0.87909033     0.06300
H140        H  0.80134822  0.01814015  0.89069074     0.09700
Br141      Br  0.79105184  0.16465497  0.80249244    -0.05800
Br142      Br  0.02545305  0.20311558  0.78189054    -0.02800
Br143      Br  0.82170197  0.17887947  0.94812519     0.00100
Br144      Br  0.84148305  0.04359232  0.82076198    -0.04300
C145        C  0.08472869  0.80590683  0.75356664    -0.11700
C146        C  0.13695113  0.82055808  0.75633347     0.03800
C147        C  0.16433170  0.84493149  0.78622898    -0.12200
C148        C  0.14065445  0.85487739  0.81367477     0.18600
C149        C  0.08841433  0.83870275  0.81156675    -0.09300
C150        C  0.06096306  0.81438145  0.78186271    -0.02200
H151        H  0.20448802  0.85687777  0.78789146     0.05200
C152        C  0.17116181  0.88461529  0.84363136     0.20600
H153        H  0.02107501  0.80356810  0.78056406     0.10300
C154        C  0.18815244  0.93690796  0.84492943    -0.15600
C155        C  0.21246399  0.96575270  0.87424541     0.03300
C156        C  0.22021717  0.94200312  0.90327449    -0.10900
C157        C  0.20464140  0.88973603  0.90118788    -0.01000
C158        C  0.18038314  0.86115754  0.87174526    -0.06100
H159        H  0.18092937  0.95506708  0.82331711     0.06300
H160        H  0.21017629  0.87054977  0.92289248     0.09700
Br161      Br  0.05331537  0.85022230  0.84844471    -0.05800
Br162      Br  0.17316363  0.80769369  0.72090810    -0.02800
Br163      Br  0.23014770  0.03615108  0.87307247     0.00100
Br164      Br  0.15820857  0.78971582  0.87157599    -0.04300
C165        C  0.99674571  0.38570449  0.66985342    -0.11700
C166        C  0.01566967  0.41993154  0.69786998     0.03800
C167        C  0.01388176  0.46520446  0.69687279    -0.12200
C168        C  0.99305386  0.47703797  0.66849389     0.18600
C169        C  0.97349652  0.44262588  0.64074958    -0.09300
C170        C  0.97524886  0.39735299  0.64168098    -0.02200
H171        H  0.02884282  0.49140185  0.71837665     0.05200
C172        C  0.99366423  0.52620353  0.66785078     0.20600
H173        H  0.96029217  0.37141506  0.62004380     0.10300
C174        C  0.02451554  0.56328973  0.64378768    -0.15600
C175        C  0.02692414  0.61059476  0.64248401     0.03300
C176        C  0.99851901  0.62198833  0.66623074    -0.10900
C177        C  0.96740458  0.58437967  0.69023595    -0.01000
C178        C  0.96477717  0.53691733  0.69115514    -0.06100
H179        H  0.04676638  0.55519822  0.62572501     0.06300
H180        H  0.94495476  0.59181906  0.70851088     0.09700
Br181      Br  0.94307322  0.45526025  0.60137713    -0.05800
Br182      Br  0.04149280  0.40579990  0.73905803    -0.02800
Br183      Br  0.06823349  0.65601309  0.60647535     0.00100
Br184      Br  0.91993850  0.48734020  0.72393014    -0.04300
C185        C  0.00544776  0.12521788  0.66519095    -0.11700
C186        C  0.04176268  0.12038651  0.64552776     0.03800
C187        C  0.04053564  0.07362277  0.64454594    -0.12200
C188        C  0.00374131  0.03161169  0.66323707     0.18600
C189        C  0.96839553  0.03707821  0.68371062    -0.09300
C190        C  0.96890561  0.08343660  0.68402088    -0.02200
H191        H  0.06815428  0.06988042  0.62901370     0.05200
C192        C  0.00405976  0.98305185  0.66209410     0.20600
H193        H  0.94139072  0.08727227  0.69962586     0.10300
C194        C  0.04625732  0.98141375  0.67546197    -0.15600
C195        C  0.04709305  0.93570106  0.67616936     0.03300
C196        C  0.00470189  0.89058136  0.66400841    -0.10900
C197        C  0.96299242  0.89236940  0.64994146    -0.01000
C198        C  0.96291200  0.93842637  0.64816685    -0.06100
H199        H  0.07834790  0.01570707  0.68579378     0.06300
H200        H  0.93096841  0.85806505  0.63955183     0.09700
Br201      Br  0.92070781  0.98351615  0.71319533    -0.05800
Br202      Br  0.09194737  0.17572910  0.61837636    -0.02800
Br203      Br  0.10580096  0.93636621  0.69551648     0.00100
Br204      Br  0.90723914  0.93904196  0.62491680    -0.04300
C205        C  0.06846414  0.28288696  0.57471722    -0.11700
C206        C  0.11577498  0.32589443  0.56596273     0.03800
C207        C  0.13952757  0.32668565  0.53481705    -0.12200
C208        C  0.11711325  0.28503901  0.51218743     0.18600
C209        C  0.07008116  0.24215292  0.52096890    -0.09300
C210        C  0.04589818  0.24171501  0.55164604    -0.02200
H211        H  0.17581830  0.35975736  0.52831835     0.05200
C212        C  0.14405911  0.28561331  0.48027443     0.20600
H213        H  0.01032691  0.20781904  0.55825812     0.10300
C214        C  0.18772923  0.28092116  0.48257008    -0.15600
C215        C  0.21105688  0.27572183  0.45294562     0.03300
C216        C  0.19044502  0.27505406  0.42011775    -0.10900
C217        C  0.14833147  0.28268013  0.41799532    -0.01000
C218        C  0.12525351  0.28798836  0.44762132    -0.06100
H219        H  0.20300316  0.28002689  0.50762216     0.06300
H220        H  0.13211798  0.28294042  0.39318877     0.09700
Br221      Br  0.03921111  0.18162363  0.49318158    -0.05800
Br222      Br  0.14911701  0.38503113  0.59490286    -0.02800
Br223      Br  0.27135364  0.27089261  0.45939619     0.00100
Br224      Br  0.06774099  0.29782309  0.44226749    -0.04300
C225        C  0.29108455  0.08294740  0.08744007    -0.11700
C226        C  0.28056663  0.05655837  0.11925104     0.03800
C227        C  0.27973443  0.08082969  0.14968208    -0.12200
C228        C  0.28914676  0.13103846  0.14932133     0.18600
C229        C  0.30238545  0.15834871  0.11820704    -0.09300
C230        C  0.30332828  0.13437890  0.08771825    -0.02200
H231        H  0.27023998  0.05989605  0.17371491     0.05200
C232        C  0.28249248  0.15327349  0.18137335     0.20600
H233        H  0.31195648  0.15577600  0.06393352     0.10300
C234        C  0.31858129  0.16751155  0.20785093    -0.15600
C235        C  0.31242518  0.18738646  0.23886238     0.03300
C236        C  0.26943924  0.19332640  0.24363695    -0.10900
C237        C  0.23360311  0.17924372  0.21688564    -0.01000
C238        C  0.23948526  0.15882763  0.18617498    -0.06100
H239        H  0.35170743  0.16320480  0.20432198     0.06300
H240        H  0.19993701  0.18267472  0.22024997     0.09700
Br241      Br  0.31836749  0.22813923  0.11607509    -0.05800
Br242      Br  0.26639823  0.98745310  0.12369770    -0.02800
Br243      Br  0.36505060  0.20770058  0.27290094     0.00100
Br244      Br  0.18644733  0.13656865  0.15222441    -0.04300
C245        C  0.77559515  0.70672885  0.42994370    -0.11700
C246        C  0.76236204  0.71764489  0.46257663     0.03800
C247        C  0.78801427  0.71594864  0.49218134    -0.12200
C248        C  0.82611244  0.70270666  0.49016317     0.18600
C249        C  0.83613918  0.68749838  0.45840694    -0.09300
C250        C  0.81123218  0.68976564  0.42872288    -0.02200
H251        H  0.77931799  0.72656553  0.51678820     0.05200
C252        C  0.85785341  0.70888704  0.52072258     0.20600
H253        H  0.82138642  0.67993065  0.40437290     0.10300
C254        C  0.83899338  0.67214491  0.54690483    -0.15600
C255        C  0.86845789  0.67772314  0.57618690     0.03300
C256        C  0.91781478  0.72080997  0.57950611    -0.10900
C257        C  0.93671849  0.75702441  0.55288291    -0.01000
C258        C  0.90705606  0.75162902  0.52389648    -0.06100
H259        H  0.80128069  0.63899226  0.54449547     0.06300
H260        H  0.97407509  0.79072555  0.55516691     0.09700
Br261      Br  0.88487007  0.66492262  0.45435268    -0.05800
Br262      Br  0.71030947  0.73542122  0.46916916    -0.02800
Br263      Br  0.83996278  0.62427762  0.60994342     0.00100
Br264      Br  0.93433524  0.80481841  0.48994905    -0.04300
C265        C  0.86397310  0.87629809  0.34002430    -0.11700
C266        C  0.87705460  0.91493397  0.36484918     0.03800
C267        C  0.92303779  0.96102842  0.36175191    -0.12200
C268        C  0.95604468  0.96962610  0.33406596     0.18600
C269        C  0.94271485  0.93139151  0.30913275    -0.09300
C270        C  0.89722856  0.88525752  0.31236045    -0.02200
H271        H  0.93352054  0.99008032  0.38130966     0.05200
C272        C  0.00544509  0.01750166  0.33256773     0.20600
H273        H  0.88752715  0.85640846  0.29275900     0.10300
C274        C  0.05035958  0.01522495  0.33549117    -0.15600
C275        C  0.09803983  0.05944682  0.33422424     0.03300
C276        C  0.10126269  0.10749500  0.33091560    -0.10900
C277        C  0.05607826  0.10953952  0.32763472    -0.01000
C278        C  0.00843677  0.06506535  0.32836937    -0.06100
H279        H  0.04824418  0.97861785  0.33844628     0.06300
H280        H  0.05770382  0.14591911  0.32478060     0.09700
Br281      Br  0.98451451  0.94071761  0.26963369    -0.05800
Br282      Br  0.83575349  0.90644619  0.40446504    -0.02800
Br283      Br  0.15657176  0.05053386  0.33502052     0.00100
Br284      Br  0.94872611  0.07106808  0.32247920    -0.04300
C285        C  0.60323232  0.60623430  0.33462858    -0.11700
C286        C  0.59666382  0.56649650  0.31215585     0.03800
C287        C  0.55060738  0.52022390  0.31206252    -0.12200
C288        C  0.51049916  0.51256880  0.33366310     0.18600
C289        C  0.51658376  0.55184151  0.35583670    -0.09300
C290        C  0.56256019  0.59812690  0.35617180    -0.02200
H291        H  0.54586010  0.49000283  0.29486503     0.05200
C292        C  0.46256127  0.46324166  0.33282772     0.20600
H293        H  0.56646253  0.62781708  0.37354458     0.10300
C294        C  0.45060147  0.42959353  0.36054232    -0.15600
C295        C  0.40486689  0.38305336  0.36114083     0.03300
C296        C  0.37002964  0.36968413  0.33350192    -0.10900
C297        C  0.38251877  0.40345778  0.30562659    -0.01000
C298        C  0.42851736  0.44972841  0.30500148    -0.06100
H299        H  0.47682480  0.43993366  0.38200399     0.06300
H300        H  0.35651831  0.39373716  0.28409499     0.09700
Br301      Br  0.46263098  0.54433237  0.38547000    -0.05800
Br302      Br  0.64729776  0.57237627  0.27981716    -0.02800
Br303      Br  0.39159909  0.34148812  0.40141689     0.00100
Br304      Br  0.44272195  0.49381789  0.26606184    -0.04300
C305        C  0.70779923  0.79120201  0.24952397    -0.11700
C306        C  0.71532616  0.77553115  0.21679564     0.03800
C307        C  0.71662882  0.80279504  0.18726577    -0.12200
C308        C  0.71011717  0.84541603  0.18940929     0.18600
C309        C  0.69908505  0.85893271  0.22156201    -0.09300
C310        C  0.69826723  0.83215825  0.25117315    -0.02200
H311        H  0.72372374  0.79122617  0.16248131     0.05200
C312        C  0.71583134  0.87556972  0.15788920     0.18800
H313        H  0.69160410  0.84457460  0.27575957     0.10300
C314        C  0.68024664  0.85354215  0.13113935    -0.15600
C315        C  0.68562981  0.88014306  0.10042417     0.03300
C316        C  0.72730991  0.93019544  0.09610768    -0.10900
C317        C  0.76258505  0.95221383  0.12319241    -0.01000
C318        C  0.75760618  0.92519759  0.15356389    -0.06100
H319        H  0.64817808  0.81526314  0.13413536     0.06300
H320        H  0.79548187  0.98998180  0.12023824     0.09700
Br321      Br  0.68466041  0.91355489  0.22627732    -0.05800
Br322      Br  0.72299469  0.71686512  0.21012416    -0.02800
Br323      Br  0.63397120  0.84609979  0.06597883     0.00100
Br324      Br  0.81090983  0.95629440  0.18730859    -0.04300
loop_ 
_geom_bond_atom_site_label_1 
_geom_bond_atom_site_label_2 
_geom_bond_distance 
_geom_bond_site_symmetry_2 
_ccdc_geom_bond_type 
O1            V9   1.902       .  S
O1           C11   1.266       .  A
O2            V9   1.901       .  S
O2           C12   1.264       .  A
O3            V9   1.903       .  S
O3           C13   1.266       .  A
O4            V9   1.903       .  S
O4           C14   1.264       .  A
O5           V10   1.901       .  S
O5           C14   1.266       .  A
O6           V10   1.901       .  S
O6           C13   1.264       .  A
O7           V10   1.888       .  S
O7           C12   1.263       .  A
O8           V10   1.890       .  S
O8           C11   1.261       .  A
V9           V10   2.083       .  T
C11         C285   1.483       .  S
C12         C265   1.475       .  S
C13         C305   1.490       .  S
C14         C245   1.492       .  S
O15          V23   1.900       .  S
O15          C25   1.265       .  A
O16          V23   1.898       .  S
O16          C26   1.265       .  A
O17          V23   1.900       .  S
O17          C27   1.265       .  A
O18          V23   1.898       .  S
O18          C28   1.264       .  A
O19          V24   1.904       .  S
O19          C28   1.265       .  A
O20          V24   1.904       .  S
O20          C27   1.265       .  A
O21          V24   1.891       .  S
O21          C26   1.262       .  A
O22          V24   1.893       .  S
O22          C25   1.262       .  A
V23          V24   2.085       .  T
C25         C296   1.477       .  S
C26         C276   1.477       .  S
C27         C216   1.487       .  S
C28         C236   1.481       .  S
O29          V37   1.903       .  S
O29          C39   1.266   1_655  A
O30          V37   1.901       .  S
O30          C40   1.264   1_655  A
O31          V37   1.896       .  S
O31          C41   1.263       .  A
O32          V37   1.899   1_455  S
O32          C42   1.265       .  A
O33          V38   1.905       .  S
O33          C42   1.265       .  A
O34          V38   1.906   1_655  S
O34          C41   1.267       .  A
O35          V38   1.892       .  S
O35          C40   1.261       .  A
O36          V38   1.894       .  S
O36          C39   1.262       .  A
V37          V38   2.084   1_655  T
C39         C176   1.487   1_455  S
C40         C196   1.466       .  S
C41         C256   1.481       .  S
C42         C145   1.489       .  S
O43          V51   1.900       .  S
O43          C53   1.264   1_455  A
O44          V51   1.899       .  S
O44          C54   1.263       .  A
O45          V51   1.901       .  S
O45          C55   1.264       .  A
O46          V51   1.901       .  S
O46          C56   1.265   1_455  A
O47          V52   1.905       .  S
O47          C56   1.266       .  A
O48          V52   1.903       .  S
O48          C55   1.266   1_655  A
O49          V52   1.894       .  S
O49          C54   1.262   1_655  A
O50          V52   1.899       .  S
O50          C53   1.264       .  A
V51          V52   2.085   1_455  T
C53         C165   1.479       .  S
C54         C185   1.464       .  S
C55         C205   1.482       .  S
C56         C125   1.487       .  S
O57          V65   1.897       .  S
O57          C67   1.265   1_566  A
O58          V65   1.895       .  S
O58          C68   1.262   1_566  A
O59          V65   1.902   1_554  S
O59          C69   1.264       .  A
O60          V65   1.901   1_545  S
O60          C70   1.266       .  A
O61          V66   1.906   1_556  S
O61          C70   1.265       .  A
O62          V66   1.905       .  S
O62          C69   1.267   1_545  A
O63          V66   1.896       .  S
O63          C68   1.265       .  A
O64          V66   1.900       .  S
O64          C67   1.264       .  A
V65          V66   2.084   1_566  T
C67         C116   1.481       .  S
C68          C96   1.482       .  S
C69         C316   1.488       .  S
C70         C136   1.490       .  S
O71          V79   1.899       .  S
O71          C81   1.266   1_564  A
O72          V79   1.898       .  S
O72          C82   1.264   1_564  A
O73          V79   1.901   1_556  S
O73          C83   1.265       .  A
O74          V79   1.898   1_545  S
O74          C84   1.263       .  A
O75          V80   1.902   1_554  S
O75          C84   1.266       .  A
O76          V80   1.903       .  S
O76          C83   1.265   1_545  A
O77          V80   1.894       .  S
O77          C82   1.262       .  A
O78          V80   1.899       .  S
O78          C81   1.263       .  A
V79          V80   2.083   1_564  T
C81         C105   1.489       .  S
C82          C85   1.478       .  S
C83         C156   1.490       .  S
C84         C225   1.489       .  S
C85          C86   1.415       .  A
C85          C90   1.407   1_546  A
C86          C87   1.395       .  A
C86        Br102   1.920       .  S
C87          C88   1.398   1_556  A
C87          H91   1.084       .  S
C88          C92   1.469   1_455  S
C88          C89   1.404   1_545  A
C89          C90   1.397       .  A
C89        Br101   1.918       .  S
C90          H93   1.083       .  S
C92          C94   1.398   1_544  A
C92          C98   1.403       .  A
C94          C95   1.397       .  A
C94          H99   1.084       .  S
C95          C96   1.418   1_566  A
C95        Br103   1.922       .  S
C96          C97   1.409       .  A
C97          C98   1.396       .  A
C97         H100   1.083       .  S
C98        Br104   1.919   1_655  S
C105        C106   1.421       .  A
C105        C110   1.408   1_546  A
C106        C107   1.402       .  A
C106       Br122   1.922       .  S
C107        C108   1.399       .  A
C107        H111   1.084       .  S
C108        C112   1.475       .  S
C108        C109   1.403   1_546  A
C109        C110   1.396       .  A
C109       Br121   1.919       .  S
C110        H113   1.083       .  S
C112        C114   1.401   1_556  A
C112        C118   1.405   1_545  A
C114        C115   1.401       .  A
C114        H119   1.084       .  S
C115        C116   1.415       .  A
C115       Br123   1.920       .  S
C116        C117   1.406   1_544  A
C117        C118   1.397       .  A
C117        H120   1.083       .  S
C118       Br124   1.919       .  S
C125        C126   1.417       .  A
C125        C130   1.408       .  A
C126        C127   1.400       .  A
C126       Br142   1.922   1_655  S
C127        C128   1.400       .  A
C127        H131   1.084       .  S
C128        C132   1.482       .  S
C128        C129   1.407       .  A
C129        C130   1.403       .  A
C129       Br141   1.917       .  S
C130        H133   1.083       .  S
C132        C134   1.402       .  A
C132        C138   1.406       .  A
C134        C135   1.404       .  A
C134        H139   1.083       .  S
C135        C136   1.417       .  A
C135       Br143   1.920       .  S
C136        C137   1.408       .  A
C137        C138   1.399       .  A
C137        H140   1.083       .  S
C138       Br144   1.919       .  S
C145        C146   1.417       .  A
C145        C150   1.408       .  A
C146        C147   1.403       .  A
C146       Br162   1.920       .  S
C147        C148   1.401       .  A
C147        H151   1.083       .  S
C148        C152   1.479       .  S
C148        C149   1.405       .  A
C149        C150   1.398       .  A
C149       Br161   1.920       .  S
C150        H153   1.083       .  S
C152        C154   1.400       .  A
C152        C158   1.404       .  A
C154        C155   1.400       .  A
C154        H159   1.084       .  S
C155        C156   1.418       .  A
C155       Br163   1.921   1_565  S
C156        C157   1.410       .  A
C157        C158   1.401       .  A
C157        H160   1.083       .  S
C158       Br164   1.918       .  S
C165        C166   1.413   1_655  A
C165        C170   1.405       .  A
C166        C167   1.399       .  A
C166       Br182   1.920       .  S
C167        C168   1.402   1_455  A
C167        H171   1.084       .  S
C168        C172   1.480       .  S
C168        C169   1.408       .  A
C169        C170   1.399       .  A
C169       Br181   1.920       .  S
C170        H173   1.083       .  S
C172        C174   1.400   1_655  A
C172        C178   1.407       .  A
C174        C175   1.398       .  A
C174        H179   1.084       .  S
C175        C176   1.418   1_455  A
C175       Br183   1.922       .  S
C176        C177   1.408       .  A
C177        C178   1.399       .  A
C177        H180   1.083       .  S
C178       Br184   1.919       .  S
C185        C186   1.407       .  A
C185        C190   1.400   1_455  A
C186        C187   1.398       .  A
C186       Br202   1.920       .  S
C187        C188   1.404       .  A
C187        H191   1.083       .  S
C188        C192   1.476   1_545  S
C188        C189   1.410   1_455  A
C189        C190   1.396       .  A
C189       Br201   1.920   1_545  S
C190        H193   1.084       .  S
C192        C194   1.402       .  A
C192        C198   1.409   1_455  A
C194        C195   1.397       .  A
C194        H199   1.084   1_565  S
C195        C196   1.408       .  A
C195       Br203   1.920       .  S
C196        C197   1.401   1_455  A
C197        C198   1.397       .  A
C197        H200   1.084       .  S
C198       Br204   1.920       .  S
C205        C206   1.414       .  A
C205        C210   1.405       .  A
C206        C207   1.404       .  A
C206       Br222   1.919       .  S
C207        C208   1.403       .  A
C207        H211   1.083       .  S
C208        C212   1.481       .  S
C208        C209   1.408       .  A
C209        C210   1.397       .  A
C209       Br221   1.920       .  S
C210        H213   1.084       .  S
C212        C214   1.402       .  A
C212        C218   1.407       .  A
C214        C215   1.402       .  A
C214        H219   1.084       .  S
C215        C216   1.415       .  A
C215       Br223   1.920       .  S
C216        C217   1.408       .  A
C217        C218   1.399       .  A
C217        H220   1.083       .  S
C218       Br224   1.919       .  S
C225        C226   1.419       .  A
C225        C230   1.409       .  A
C226        C227   1.400       .  A
C226       Br242   1.922   1_545  S
C227        C228   1.400       .  A
C227        H231   1.084       .  S
C228        C232   1.478       .  S
C228        C229   1.405       .  A
C229        C230   1.398       .  A
C229       Br241   1.919       .  S
C230        H233   1.083       .  S
C232        C234   1.402       .  A
C232        C238   1.407       .  A
C234        C235   1.402       .  A
C234        H239   1.083       .  S
C235        C236   1.413       .  A
C235       Br243   1.919       .  S
C236        C237   1.406       .  A
C237        C238   1.397       .  A
C237        H240   1.084       .  S
C238       Br244   1.920       .  S
C245        C246   1.419       .  A
C245        C250   1.409       .  A
C246        C247   1.403       .  A
C246       Br262   1.921       .  S
C247        C248   1.401       .  A
C247        H251   1.084       .  S
C248        C252   1.479       .  S
C248        C249   1.404       .  A
C249        C250   1.398       .  A
C249       Br261   1.919       .  S
C250        H253   1.083       .  S
C252        C254   1.401       .  A
C252        C258   1.407       .  A
C254        C255   1.402       .  A
C254        H259   1.083       .  S
C255        C256   1.415       .  A
C255       Br263   1.920       .  S
C256        C257   1.404       .  A
C257        C258   1.398       .  A
C257        H260   1.084       .  S
C258       Br264   1.920       .  S
C265        C266   1.412       .  A
C265        C270   1.405       .  A
C266        C267   1.399       .  A
C266       Br282   1.920       .  S
C267        C268   1.403       .  A
C267        H271   1.084       .  S
C268        C272   1.474   1_665  S
C268        C269   1.406       .  A
C269        C270   1.393       .  A
C269       Br281   1.921       .  S
C270        H273   1.084       .  S
C272        C274   1.401       .  A
C272        C278   1.406       .  A
C274        C275   1.395       .  A
C274        H279   1.084   1_545  S
C275        C276   1.414       .  A
C275       Br283   1.922       .  S
C276        C277   1.406       .  A
C277        C278   1.397       .  A
C277        H280   1.083       .  S
C278       Br284   1.919   1_455  S
C285        C286   1.419       .  A
C285        C290   1.407       .  A
C286        C287   1.398       .  A
C286       Br302   1.923       .  S
C287        C288   1.399       .  A
C287        H291   1.084       .  S
C288        C292   1.473       .  S
C288        C289   1.405       .  A
C289        C290   1.397       .  A
C289       Br301   1.919       .  S
C290        H293   1.083       .  S
C292        C294   1.400       .  A
C292        C298   1.406       .  A
C294        C295   1.397       .  A
C294        H299   1.084       .  S
C295        C296   1.415       .  A
C295       Br303   1.920       .  S
C296        C297   1.405       .  A
C297        C298   1.397       .  A
C297        H300   1.083       .  S
C298       Br304   1.919       .  S
C305        C306   1.417       .  A
C305        C310   1.408       .  A
C306        C307   1.402       .  A
C306       Br322   1.921       .  S
C307        C308   1.402       .  A
C307        H311   1.084       .  S
C308        C312   1.485       .  S
C308        C309   1.408       .  A
C309        C310   1.400       .  A
C309       Br321   1.919       .  S
C310        H313   1.083       .  S
C312        C314   1.402       .  A
C312        C318   1.409       .  A
C314        C315   1.403       .  A
C314        H319   1.084       .  S
C315        C316   1.416       .  A
C315       Br323   1.920       .  S
C316        C317   1.407       .  A
C317        C318   1.400       .  A
C317        H320   1.083       .  S
C318       Br324   1.921       .  S
