geometry optimzed in LAMMPS
_audit_creation_date              2020-12-01 
_audit_creation_method            'lammps2cif' 
_symmetry_space_group_name_H-M    'P1' 
_symmetry_Int_Tables_number       1 
_symmetry_cell_setting            triclinic 
loop_ 
_symmetry_equiv_pos_as_xyz 
  x,y,z 
_cell_length_a                    33.38599199 
_cell_length_b                    33.351220680584426 
_cell_length_c                    47.41708341649077 
_cell_angle_alpha                 89.96792053264568 
_cell_angle_beta                  90.03899610628937 
_cell_angle_gamma                 90.28098411936854 
loop_ 
_atom_site_label 
_atom_site_type_symbol 
_atom_site_fract_x 
_atom_site_fract_y 
_atom_site_fract_z 
_atom_site_charge 
O1          O  0.08510415  0.78636619  0.63251023    -0.55300
C2          C  0.98292100  0.79808212  0.68066554     0.77300
O3          O  0.97080934  0.75821801  0.58856929    -0.56500
C4          C  0.09176003  0.78133982  0.60647477     0.77300
C5          C  0.01699716  0.67540034  0.64114770     0.79600
Cd6        Cd  0.01493396  0.76082316  0.63039936     1.37500
O7          O  0.01891467  0.80353662  0.67325827    -0.55300
O8          O  0.04375036  0.69882065  0.65044814    -0.54200
C9          C  0.96865292  0.79588936  0.58581048     0.79600
O10         O  0.98885173  0.69107578  0.62720326    -0.56500
O11         O  0.96191018  0.77521802  0.66534166    -0.55000
O12         O  0.06409079  0.76549910  0.59209248    -0.55000
O13         O  0.98618073  0.81714620  0.60414404    -0.54100
O14         O  0.83763732  0.97814937  0.86632739    -0.55300
C15         C  0.81275942  0.05274891  0.93179388     0.77300
O16         O  0.71699227  0.96422699  0.90902455    -0.56500
C17         C  0.82938314  0.94307980  0.85797250     0.77300
C18         C  0.81596269  0.92456441  0.94996760     0.79600
Cd19       Cd  0.78964239  0.97792701  0.90618357     1.37500
O20         O  0.82484003  0.04345981  0.90739085    -0.55300
O21         O  0.83994844  0.94679824  0.93648962    -0.54200
C22         C  0.70677182  0.99057254  0.89129900     0.79600
O23         O  0.77932712  0.92628241  0.94324529    -0.56500
O24         O  0.78915000  0.02851735  0.94383189    -0.55000
O25         O  0.80204361  0.92453585  0.87108131    -0.55000
O26         O  0.73458343  0.01049491  0.87976276    -0.54100
O27         O  0.01307815  0.22273697  0.16404639    -0.55300
C28         C  0.09261618  0.25023290  0.10381512     0.77300
O29         O  0.97138955  0.28157453  0.08358512    -0.56500
C30         C  0.97859906  0.23238639  0.17256239     0.77300
C31         C  0.02306035  0.35546501  0.13941429     0.79600
Cd32       Cd  0.01522408  0.27183229  0.12512144     1.37500
O33         O  0.08348628  0.24338748  0.12925612    -0.55300
O34         O  0.04715444  0.32971036  0.14895667    -0.54200
C35         C  0.96591255  0.24452317  0.07927966     0.79600
O36         O  0.99510135  0.34280174  0.12377265    -0.56500
O37         O  0.06675291  0.26751789  0.08872515    -0.55000
O38         O  0.96134788  0.26067997  0.15976353    -0.55000
O39         O  0.98271331  0.22042363  0.09604721    -0.55700
O40         O  0.83601518  0.04845470  0.35797536    -0.55300
C41         C  0.82752493  0.98173063  0.42744394     0.77300
O42         O  0.78768331  0.10370153  0.44118908    -0.56500
C43         C  0.83045556  0.08422419  0.35020261     0.77300
C44         C  0.71508994  0.04222348  0.39053636     0.79600
Cd45       Cd  0.79872320  0.05465324  0.40260316     1.37500
O46         O  0.84752116  0.00016541  0.40889049    -0.55300
O47         O  0.74174944  0.02087462  0.37912439    -0.54200
C48         C  0.82446517  0.10932737  0.44616824     0.79600
O49         O  0.72682983  0.06941930  0.40720729    -0.56500
O50         O  0.79355881  0.99568818  0.43363922    -0.55000
O51         O  0.80958557  0.10615164  0.36612116    -0.55000
O52         O  0.84905698  0.09093622  0.43073905    -0.54100
O53         O  0.01812493  0.23296767  0.62766980    -0.55300
C54         C  0.11344498  0.23336307  0.68089782     0.77300
O55         O  0.13850261  0.27599462  0.59445454    -0.56500
C56         C  0.00763560  0.24802816  0.60434214     0.77300
C57         C  0.07112148  0.35274390  0.64102177     0.79600
Cd58       Cd  0.08342196  0.26878132  0.62943446     1.37500
O59         O  0.08027095  0.22265595  0.67039853    -0.55300
O60         O  0.05354682  0.32578183  0.65516366    -0.54200
C61         C  0.13827640  0.23962137  0.58696183     0.79600
O62         O  0.09531685  0.34124748  0.62223413    -0.56500
O63         O  0.13251422  0.26069578  0.66810897    -0.55000
O64         O  0.03122728  0.27309690  0.59320910    -0.55000
O65         O  0.11382465  0.21665242  0.59939606    -0.54100
O66         O  0.26496369  0.99402377  0.91237644    -0.55300
C67         C  0.26314768  0.08940484  0.86019520     0.77300
O68         O  0.31813083  0.10417900  0.94881150    -0.56500
C69         C  0.27745301  0.98483872  0.93669495     0.77300
C70         C  0.38563825  0.04515441  0.89276253     0.79600
Cd71       Cd  0.30341276  0.05783856  0.90925710     1.37500
O72         O  0.25326708  0.05601215  0.87079561    -0.55300
O73         O  0.35798197  0.02212495  0.88426175    -0.54200
C74         C  0.28216563  0.11470626  0.95227969     0.79600
O75         O  0.37546791  0.07423096  0.90817762    -0.56500
O76         O  0.29223651  0.10770465  0.87151872    -0.55000
O77         O  0.30262319  0.00829103  0.94788573    -0.55000
O78         O  0.25646508  0.10007814  0.93561755    -0.54100
O79         O  0.26387895  0.98089184  0.36890055    -0.55300
C80         C  0.28865085  0.05451690  0.43496008     0.77300
O81         O  0.32004764  0.92658722  0.44775439    -0.56500
C82         C  0.26803145  0.94460272  0.36188925     0.77300
C83         C  0.39299050  0.98898720  0.39437013     0.79600
Cd84       Cd  0.30979545  0.97835419  0.41038933     1.37500
O85         O  0.27175401  0.04190768  0.41275993    -0.55300
O86         O  0.36598261  0.01219362  0.38546805    -0.54200
C87         C  0.28454942  0.92812177  0.45698880     0.79600
O88         O  0.38186732  0.96039862  0.41006330    -0.56500
O89         O  0.31622714  0.03307786  0.44513427    -0.55000
O90         O  0.29195477  0.92407230  0.37657017    -0.55000
O91         O  0.26107023  0.95206232  0.44475858    -0.54100
O92         O  0.07494740  0.80628165  0.17685044    -0.55300
C93         C  0.00524335  0.78813231  0.10667622     0.77300
O94         O  0.12758231  0.75588267  0.09421807    -0.56500
C95         C  0.11058189  0.80000413  0.18470322     0.77300
C96         C  0.06644570  0.68017279  0.14519579     0.79600
Cd97       Cd  0.07879538  0.76436047  0.13340121     1.37500
O98         O  0.01496713  0.80233194  0.13048653    -0.55300
O99         O  0.04131780  0.70620654  0.15284079    -0.54200
C100        C  0.13081929  0.79297603  0.08907375     0.79600
O101        O  0.09769143  0.69279364  0.13298141    -0.56500
O102        O  0.02837788  0.76248743  0.09597711    -0.55000
O103        O  0.13115402  0.77678110  0.16952065    -0.55000
O104        O  0.11135875  0.81652371  0.10470560    -0.54100
C105        C  0.16328523  0.85520611  0.25255179     0.19500
C106        C  0.16706377  0.83612509  0.27878005    -0.09600
C107        C  0.18787929  0.85491057  0.30085906    -0.10500
C108        C  0.20513906  0.89294646  0.29690553     0.21100
C109        C  0.20104206  0.91216982  0.27075704    -0.12500
C110        C  0.18023015  0.89339090  0.24868508    -0.10800
C111        C  0.22742341  0.91193406  0.31950683     0.02000
C112        C  0.24615563  0.92725601  0.33858096    -0.30800
C113        C  0.14301821  0.83531863  0.22940974     0.03400
C114        C  0.12736308  0.81893005  0.20943252    -0.32500
H115        H  0.15420714  0.80659553  0.28209588     0.14500
H116        H  0.19075736  0.83966293  0.32092482     0.14300
H117        H  0.21418268  0.94155581  0.26736088     0.14100
H118        H  0.17764132  0.90850237  0.22854822     0.13200
C119        C  0.23024073  0.89514699  0.98470601     0.19500
C120        C  0.25316770  0.87560505  0.00528522    -0.09600
C121        C  0.23447980  0.85105391  0.02537252    -0.10500
C122        C  0.19278367  0.84593747  0.02498982     0.21100
C123        C  0.17000339  0.86471924  0.00399290    -0.12500
C124        C  0.18867075  0.88924006  0.98392537    -0.10800
C125        C  0.17299837  0.82378815  0.04714147     0.02000
C126        C  0.15483205  0.80807985  0.06622303    -0.30800
C127        C  0.24873094  0.92365171  0.96583626     0.03400
C128        C  0.26268547  0.95021718  0.95153823    -0.32500
H129        H  0.28528472  0.88016484  0.00624950     0.14500
H130        H  0.25239714  0.83689872  0.04159687     0.14300
H131        H  0.13773012  0.86121935  0.00356557     0.14100
H132        H  0.17057634  0.90441675  0.96826519     0.13200
C133        C  0.20437736  0.19104407  0.52327639     0.19500
C134        C  0.18260395  0.17429185  0.50087493    -0.09600
C135        C  0.20210565  0.15163148  0.48025691    -0.10500
C136        C  0.24354569  0.14555352  0.48186228     0.21100
C137        C  0.26558668  0.16347888  0.50370771    -0.12500
C138        C  0.24604984  0.18619005  0.52435884    -0.10800
C139        C  0.26239089  0.11753710  0.46292977     0.02000
C140        C  0.27572558  0.09045673  0.44894171    -0.30800
C141        C  0.18344950  0.21078092  0.54595897     0.03400
C142        C  0.16395938  0.22495919  0.56492739    -0.32500
H143        H  0.15037801  0.17770894  0.49982069     0.14500
H144        H  0.18466698  0.13769431  0.46362868     0.14300
H145        H  0.29759027  0.15876189  0.50532305     0.14100
H146        H  0.26322838  0.19889084  0.54159489     0.13200
C147        C  0.20307813  0.14035661  0.79422657     0.19500
C148        C  0.22129383  0.14281672  0.76767439    -0.09600
C149        C  0.20169613  0.16187489  0.74532904    -0.10500
C150        C  0.16371990  0.17865185  0.74934705     0.21100
C151        C  0.14536033  0.17608394  0.77588433    -0.12500
C152        C  0.16499754  0.15699006  0.79827347    -0.10800
C153        C  0.14399974  0.19856018  0.72617614     0.02000
C154        C  0.12920789  0.21479840  0.70593394    -0.30800
C155        C  0.22384362  0.12137504  0.81731630     0.03400
C156        C  0.24185093  0.10620818  0.83664437    -0.32500
H157        H  0.25072858  0.13015794  0.76427562     0.14500
H158        H  0.21621723  0.16364806  0.72494091     0.14300
H159        H  0.11600603  0.18892724  0.77928032     0.14100
H160        H  0.15060896  0.15535435  0.81871455     0.13200
C161        C  0.51215857  0.00922512  0.38047238     0.19500
C162        C  0.52723727  0.04806675  0.38472251    -0.09600
C163        C  0.56860170  0.05510811  0.38439418    -0.10500
C164        C  0.59516457  0.02337142  0.37980893     0.21100
C165        C  0.58008204  0.98472286  0.37480360    -0.12500
C166        C  0.53869512  0.97767545  0.37513404    -0.10800
C167        C  0.63776907  0.03005828  0.38187043     0.02000
C168        C  0.67322126  0.03561899  0.38514175    -0.30800
C169        C  0.46977610  0.00143192  0.38335151     0.03400
C170        C  0.43456062  0.99534863  0.38753778    -0.32500
H171        H  0.50709199  0.07269284  0.38895199     0.14500
H172        H  0.57989174  0.08510900  0.38836389     0.14300
H173        H  0.60029930  0.95992197  0.37130407     0.14100
H174        H  0.52744959  0.94748694  0.37189628     0.13200
C175        C  0.91758008  0.20631996  0.55528228     0.19500
C176        C  0.91467111  0.16453434  0.55320877    -0.09600
C177        C  0.89220872  0.14705764  0.53156923    -0.10500
C178        C  0.87251378  0.17124670  0.51184038     0.21100
C179        C  0.87461226  0.21309422  0.51424903    -0.12500
C180        C  0.89715843  0.23062319  0.53594400    -0.10800
C181        C  0.85225316  0.15276250  0.48836956     0.02000
C182        C  0.83805218  0.13446159  0.46882038    -0.30800
C183        C  0.94479843  0.22372111  0.57542489     0.03400
C184        C  0.97161723  0.23589709  0.59018062    -0.32500
H185        H  0.93072193  0.14546449  0.56782270     0.14500
H186        H  0.89100429  0.11468071  0.52981033     0.14300
H187        H  0.85968939  0.23208515  0.49900752     0.14100
H188        H  0.89959522  0.26298051  0.53715189     0.13200
C189        C  0.04745729  0.55950807  0.15085123     0.19500
C190        C  0.04370468  0.53946479  0.12501957    -0.09600
C191        C  0.03842435  0.49788174  0.12439379    -0.10500
C192        C  0.03683392  0.47599073  0.14958626     0.21100
C193        C  0.04038964  0.49596946  0.17548573    -0.12500
C194        C  0.04568915  0.53767573  0.17611407    -0.10800
C195        C  0.03179252  0.43309600  0.14850862     0.02000
C196        C  0.02770608  0.39740760  0.14544016    -0.30800
C197        C  0.05370976  0.60232519  0.15112185     0.03400
C198        C  0.05942809  0.63802771  0.14946385    -0.32500
H199        H  0.04505504  0.55596961  0.10535379     0.14500
H200        H  0.03571914  0.48277184  0.10424741     0.14300
H201        H  0.03920956  0.47935269  0.19510733     0.14100
H202        H  0.04858770  0.55283104  0.19622263     0.13200
C203        C  0.18839151  0.21105747  0.05982248     0.19500
C204        C  0.20372090  0.23552275  0.03829468    -0.09600
C205        C  0.22789449  0.21903580  0.01722022    -0.10500
C206        C  0.23678821  0.17802877  0.01764987     0.21100
C207        C  0.22262695  0.15392293  0.03973897    -0.12500
C208        C  0.19846091  0.17037426  0.06076513    -0.10800
C209        C  0.25710512  0.15964680  0.99428943     0.02000
C210        C  0.27045598  0.14086652  0.97476325    -0.30800
C211        C  0.15863826  0.22643536  0.07881045     0.03400
C212        C  0.13006788  0.23794054  0.09197077    -0.32500
H213        H  0.19571666  0.26693831  0.03719139     0.14500
H214        H  0.23840526  0.23787984  0.00012107     0.14300
H215        H  0.22905272  0.12209934  0.04013807     0.14100
H216        H  0.18639393  0.15108946  0.07709892     0.13200
C217        C  0.92356079  0.17310958  0.23711490     0.19500
C218        C  0.93724594  0.17779637  0.26484210    -0.09600
C219        C  0.91782445  0.15795761  0.28694496    -0.10500
C220        C  0.88461100  0.13334424  0.28143045     0.21100
C221        C  0.87108293  0.12836252  0.25367072    -0.12500
C222        C  0.89053629  0.14822369  0.23153637    -0.10800
C223        C  0.86408891  0.11409820  0.30444324     0.02000
C224        C  0.84793246  0.09963667  0.32478644    -0.30800
C225        C  0.94322573  0.19410972  0.21448507     0.03400
C226        C  0.95961706  0.21179452  0.19553048    -0.32500
H227        H  0.96276266  0.19694971  0.26938261     0.14500
H228        H  0.92849713  0.16204122  0.30833577     0.14300
H229        H  0.84539364  0.10941983  0.24918389     0.14100
H230        H  0.87972993  0.14438117  0.21015825     0.13200
C231        C  0.50499624  0.02720490  0.88020689     0.19500
C232        C  0.52059113  0.99390159  0.86599430    -0.09600
C233        C  0.56195824  0.98703920  0.86590426    -0.10500
C234        C  0.58790109  0.01343167  0.88002969     0.21100
C235        C  0.57233361  0.04713148  0.89375302    -0.12500
C236        C  0.53103565  0.05398481  0.89383999    -0.10800
C237        C  0.63015876  0.00500537  0.88179618     0.02000
C238        C  0.66531727  0.99813758  0.88514705    -0.30800
C239        C  0.46230987  0.03298070  0.88216333     0.03400
C240        C  0.42695699  0.03826659  0.88587643    -0.32500
H241        H  0.50076925  0.97289449  0.85547044     0.14500
H242        H  0.57361485  0.96079403  0.85530639     0.14300
H243        H  0.59203220  0.06766933  0.90483877     0.14100
H244        H  0.51934346  0.07974881  0.90499719     0.13200
C245        C  0.91803578  0.82712547  0.05407599     0.19500
C246        C  0.93185931  0.82944398  0.02622780    -0.09600
C247        C  0.90754550  0.84564018  0.00516413    -0.10500
C248        C  0.86920097  0.85960582  0.01178307     0.21100
C249        C  0.85494386  0.85651498  0.03951244    -0.12500
C250        C  0.87933233  0.84026500  0.06064494    -0.10800
C251        C  0.84603951  0.87967907  0.99045514     0.02000
C252        C  0.83019734  0.89894737  0.97208381    -0.30800
C253        C  0.94458794  0.81279295  0.07576442     0.03400
C254        C  0.97046237  0.80141493  0.09158304    -0.32500
H255        H  0.96175351  0.81946811  0.02090978     0.14500
H256        H  0.91899476  0.84811842  0.98384870     0.14300
H257        H  0.82542692  0.86746224  0.04489810     0.14100
H258        H  0.86836080  0.83869046  0.08211246     0.13200
C259        C  0.90015904  0.19321207  0.01661226     0.19500
C260        C  0.91911153  0.18114621  0.99169136    -0.09600
C261        C  0.89881975  0.15668751  0.97239922    -0.10500
C262        C  0.85947492  0.14418347  0.97793996     0.21100
C263        C  0.84017620  0.15705583  0.00253687    -0.12500
C264        C  0.86047292  0.18153504  0.02183144    -0.10800
C265        C  0.84037648  0.11537634  0.95969574     0.02000
C266        C  0.82655426  0.08828112  0.94589689    -0.30800
C267        C  0.92235546  0.21487347  0.03775675     0.03400
C268        C  0.94181930  0.23005396  0.05635775    -0.32500
H269        H  0.94991210  0.18972677  0.98754983     0.14500
H270        H  0.91416665  0.14660274  0.95360025     0.14300
H271        H  0.80988847  0.14724699  0.00717753     0.14100
H272        H  0.84564219  0.19041604  0.04113564     0.13200
C273        C  0.04567340  0.47176460  0.64958400     0.19500
C274        C  0.06892193  0.49786687  0.66606636    -0.09600
C275        C  0.06071280  0.53900714  0.66625715    -0.10500
C276        C  0.02920399  0.55428510  0.64996867     0.21100
C277        C  0.00546806  0.52805899  0.63393241    -0.12500
C278        C  0.01367187  0.48693885  0.63374302    -0.10800
C279        C  0.02275596  0.59698393  0.64837834     0.02000
C280        C  0.01910550  0.63280154  0.64568742    -0.30800
C281        C  0.05540086  0.42971954  0.64807449     0.03400
C282        C  0.06317457  0.39457736  0.64556528    -0.32500
H283        H  0.09376963  0.48653030  0.67837621     0.14500
H284        H  0.07939214  0.55897088  0.67865492     0.14300
H285        H  0.98113516  0.53948599  0.62115982     0.14100
H286        H  0.99550249  0.46709142  0.62088473     0.13200
C287        C  0.91260856  0.85211121  0.52056900     0.19500
C288        C  0.87491377  0.86912347  0.52510119    -0.09600
C289        C  0.85656271  0.89137586  0.50378911    -0.10500
C290        C  0.87578986  0.89675536  0.47781556     0.21100
C291        C  0.91335982  0.87943494  0.47311272    -0.12500
C292        C  0.93174783  0.85710669  0.49447430    -0.10800
C293        C  0.85814842  0.92264029  0.45704035     0.02000
C294        C  0.84358815  0.94780009  0.44202499    -0.30800
C295        C  0.93191969  0.83064179  0.54307294     0.03400
C296        C  0.94801972  0.81397786  0.56255492    -0.32500
H297        H  0.85996590  0.86563959  0.54522992     0.14500
H298        H  0.82771812  0.90502703  0.50774927     0.14300
H299        H  0.92868408  0.88379742  0.45320868     0.14100
H300        H  0.96102938  0.84424102  0.49080139     0.13200
C301        C  0.23468579  0.86405718  0.52136387     0.19500
C302        C  0.22342945  0.82386851  0.51756230    -0.09600
C303        C  0.19874154  0.80477791  0.53736329    -0.10500
C304        C  0.18517929  0.82573513  0.56110549     0.21100
C305        C  0.19738162  0.86556112  0.56532253    -0.12500
C306        C  0.22206263  0.88464843  0.54552385    -0.10800
C307        C  0.15588870  0.80774604  0.57962938     0.02000
C308        C  0.12826363  0.79450980  0.59324282    -0.30800
C309        C  0.25623097  0.88508383  0.49944269     0.03400
C310        C  0.27101718  0.90394734  0.48029968    -0.32500
H311        H  0.23271115  0.80769409  0.49889432     0.14500
H312        H  0.18923221  0.77410035  0.53371042     0.14300
H313        H  0.18682407  0.88222107  0.58343141     0.14100
H314        H  0.23028680  0.91581470  0.54862321     0.13200
C315        C  0.89055782  0.89012589  0.79329994     0.19500
C316        C  0.89929103  0.91163511  0.76863867    -0.09600
C317        C  0.91962597  0.89311893  0.74638971    -0.10500
C318        C  0.93141751  0.85295277  0.74863877     0.21100
C319        C  0.92301649  0.83152997  0.77341066    -0.12500
C320        C  0.90266999  0.85005732  0.79567228    -0.10800
C321        C  0.95109803  0.83350801  0.72526079     0.02000
C322        C  0.96635609  0.81727444  0.70520014    -0.30800
C323        C  0.86881474  0.90904500  0.81595974     0.03400
C324        C  0.85055207  0.92483257  0.83490698    -0.32500
H325        H  0.89013279  0.94261245  0.76652947     0.14500
H326        H  0.92585003  0.91001200  0.72735503     0.14300
H327        H  0.93188447  0.80045326  0.77541814     0.14100
H328        H  0.89614035  0.83307990  0.81462147     0.13200
loop_ 
_geom_bond_atom_site_label_1 
_geom_bond_atom_site_label_2 
_geom_bond_distance 
_geom_bond_site_symmetry_2 
_ccdc_geom_bond_type 
O1            C4   1.266       .  A
O1           Cd6   2.491       .  S
C2           O11   1.263       .  A
C2            O7   1.264   1_655  A
C2          C322   1.440       .  S
O3            C9   1.266       .  A
O3           Cd6   2.471   1_655  S
C4           O12   1.262       .  A
C4          C308   1.438       .  S
C5           O10   1.264   1_455  A
C5            O8   1.263       .  A
C5          C280   1.439       .  S
Cd6          O13   2.452   1_455  S
Cd6          O12   2.453       .  S
Cd6          O11   2.474   1_455  S
Cd6           O7   2.486       .  S
Cd6          O10   2.484   1_455  S
Cd6           O8   2.474       .  S
C9           O13   1.264       .  A
C9          C296   1.434       .  S
O14          C17   1.264       .  A
O14         Cd19   2.479       .  S
C15          O24   1.263       .  A
C15          O20   1.265       .  A
C15         C266   1.435       .  S
O16          C22   1.264       .  A
O16         Cd19   2.470       .  S
C17          O25   1.264       .  A
C17         C324   1.439       .  S
C18          O23   1.265       .  A
C18          O21   1.262       .  A
C18         C252   1.435       .  S
Cd19         O26   2.479   1_565  S
Cd19         O25   2.475       .  S
Cd19         O24   2.457   1_565  S
Cd19         O20   2.477   1_565  S
Cd19         O23   2.483       .  S
Cd19         O21   2.445       .  S
C22          O26   1.264   1_565  A
C22         C238   1.438       .  S
O27          C30   1.263   1_455  A
O27         Cd32   2.467       .  S
C28          O37   1.262       .  A
C28          O33   1.265       .  A
C28         C212   1.433       .  S
O29          C35   1.265       .  A
O29         Cd32   2.475   1_655  S
C30          O38   1.263       .  A
C30         C226   1.434       .  S
C31          O36   1.263   1_455  A
C31          O34   1.263       .  A
C31         C196   1.436       .  S
Cd32         O39   2.450   1_455  S
Cd32         O38   2.463   1_455  S
Cd32         O37   2.442       .  S
Cd32         O33   2.480       .  S
Cd32         O36   2.464   1_455  S
Cd32         O34   2.474       .  S
C35          O39   1.263       .  A
C35         C268   1.434       .  S
O40          C43   1.263       .  A
O40         Cd45   2.465       .  S
C41          O50   1.263       .  A
C41          O46   1.262   1_565  A
C41         C294   1.432       .  S
O42          C48   1.263       .  A
O42         Cd45   2.484       .  S
C43          O51   1.263       .  A
C43         C224   1.433       .  S
C44          O49   1.264       .  A
C44          O47   1.265       .  A
C44         C168   1.437       .  S
Cd45         O52   2.459       .  S
Cd45         O51   2.463       .  S
Cd45         O50   2.461   1_545  S
Cd45         O46   2.464       .  S
Cd45         O49   2.462       .  S
Cd45         O47   2.471       .  S
C48          O52   1.262       .  A
C48         C182   1.435       .  S
O53          C56   1.265       .  A
O53         Cd58   2.482       .  S
C54          O63   1.264       .  A
C54          O59   1.264       .  A
C54         C154   1.439       .  S
O55          C61   1.264       .  A
O55         Cd58   2.488       .  S
C56          O64   1.262       .  A
C56         C184   1.434   1_455  S
C57          O62   1.264       .  A
C57          O60   1.264       .  A
C57         C282   1.438       .  S
Cd58         O65   2.471       .  S
Cd58         O64   2.451       .  S
Cd58         O63   2.474       .  S
Cd58         O59   2.479       .  S
Cd58         O62   2.471       .  S
Cd58         O60   2.474       .  S
C61          O65   1.263       .  A
C61         C142   1.439       .  S
O66          C69   1.264       .  A
O66         Cd71   2.484   1_565  S
C67          O76   1.264       .  A
C67          O72   1.264       .  A
C67         C156   1.438       .  S
O68          C74   1.264       .  A
O68         Cd71   2.478       .  S
C69          O77   1.262   1_565  A
C69         C128   1.437       .  S
C70          O75   1.263       .  A
C70          O73   1.264       .  A
C70         C240   1.437       .  S
Cd71         O78   2.456       .  S
Cd71         O77   2.466       .  S
Cd71         O76   2.472       .  S
Cd71         O72   2.475       .  S
Cd71         O75   2.465       .  S
Cd71         O73   2.484       .  S
C74          O78   1.262       .  A
C74         C210   1.434       .  S
O79          C82   1.264       .  A
O79         Cd84   2.495       .  S
C80          O89   1.264       .  A
C80          O85   1.265       .  A
C80         C140   1.438       .  S
O81          C87   1.265       .  A
O81         Cd84   2.498       .  S
C82          O90   1.263       .  A
C82         C112   1.444       .  S
C83          O88   1.264       .  A
C83          O86   1.263   1_565  A
C83         C170   1.440       .  S
Cd84         O91   2.462       .  S
Cd84         O90   2.489       .  S
Cd84         O89   2.468   1_565  S
Cd84         O85   2.479   1_565  S
Cd84         O88   2.482       .  S
Cd84         O86   2.484   1_565  S
C87          O91   1.262       .  A
C87         C310   1.439       .  S
O92          C95   1.265       .  A
O92         Cd97   2.494       .  S
C93         O102   1.262       .  A
C93          O98   1.266       .  A
C93         C254   1.435   1_455  S
O94         C100   1.265       .  A
O94         Cd97   2.489       .  S
C95         O103   1.263       .  A
C95         C114   1.444       .  S
C96         O101   1.264       .  A
C96          O99   1.264       .  A
C96         C198   1.438       .  S
Cd97        O104   2.458       .  S
Cd97        O103   2.480       .  S
Cd97        O102   2.446       .  S
Cd97         O98   2.488       .  S
Cd97        O101   2.472       .  S
Cd97         O99   2.480       .  S
C100        O104   1.263       .  A
C100        C126   1.438       .  S
C105        C113   1.448       .  S
C105        C106   1.403       .  A
C105        C110   1.403       .  A
C106        C107   1.402       .  A
C106        H115   1.084       .  S
C107        C108   1.403       .  A
C107        H116   1.083       .  S
C108        C111   1.448       .  S
C108        C109   1.402       .  A
C109        C110   1.402       .  A
C109        H117   1.084       .  S
C110        H118   1.083       .  S
C111        C112   1.211       .  T
C113        C114   1.211       .  T
C119        C127   1.442       .  S
C119        C120   1.402   1_556  A
C119        C124   1.401       .  A
C120        C121   1.401       .  A
C120        H129   1.083       .  S
C121        C122   1.402       .  A
C121        H130   1.084       .  S
C122        C125   1.442       .  S
C122        C123   1.402       .  A
C123        C124   1.399   1_554  A
C123        H131   1.083       .  S
C124        H132   1.084       .  S
C125        C126   1.207       .  T
C127        C128   1.207       .  T
C133        C141   1.444       .  S
C133        C134   1.402       .  A
C133        C138   1.402       .  A
C134        C135   1.399       .  A
C134        H143   1.084       .  S
C135        C136   1.401       .  A
C135        H144   1.083       .  S
C136        C139   1.443       .  S
C136        C137   1.403       .  A
C137        C138   1.402       .  A
C137        H145   1.083       .  S
C138        H146   1.083       .  S
C139        C140   1.208       .  T
C141        C142   1.208       .  T
C147        C155   1.443       .  S
C147        C148   1.401       .  A
C147        C152   1.403       .  A
C148        C149   1.399       .  A
C148        H157   1.084       .  S
C149        C150   1.402       .  A
C149        H158   1.083       .  S
C150        C153   1.444       .  S
C150        C151   1.402       .  A
C151        C152   1.402       .  A
C151        H159   1.084       .  S
C152        H160   1.083       .  S
C153        C154   1.208       .  T
C155        C156   1.208       .  T
C161        C169   1.444       .  S
C161        C162   1.402       .  A
C161        C166   1.402   1_545  A
C162        C163   1.400       .  A
C162        H171   1.083       .  S
C163        C164   1.401       .  A
C163        H172   1.084       .  S
C164        C167   1.442       .  S
C164        C165   1.402   1_545  A
C165        C166   1.401       .  A
C165        H173   1.083       .  S
C166        H174   1.084       .  S
C167        C168   1.207       .  T
C169        C170   1.209   1_545  T
C175        C183   1.438       .  S
C175        C176   1.400       .  A
C175        C180   1.402       .  A
C176        C177   1.397       .  A
C176        H185   1.084       .  S
C177        C178   1.401       .  A
C177        H186   1.084       .  S
C178        C181   1.439       .  S
C178        C179   1.402       .  A
C179        C180   1.401       .  A
C179        H187   1.083       .  S
C180        H188   1.083       .  S
C181        C182   1.206       .  T
C183        C184   1.205       .  T
C189        C197   1.442       .  S
C189        C190   1.401       .  A
C189        C194   1.403       .  A
C190        C191   1.397       .  A
C190        H199   1.083       .  S
C191        C192   1.401       .  A
C191        H200   1.084       .  S
C192        C195   1.441       .  S
C192        C193   1.402       .  A
C193        C194   1.402       .  A
C193        H201   1.083       .  S
C194        H202   1.083       .  S
C195        C196   1.206       .  T
C197        C198   1.208       .  T
C203        C211   1.438       .  S
C203        C204   1.402       .  A
C203        C208   1.400       .  A
C204        C205   1.399       .  A
C204        H213   1.084       .  S
C205        C206   1.401       .  A
C205        H214   1.083       .  S
C206        C209   1.438   1_554  S
C206        C207   1.401       .  A
C207        C208   1.397       .  A
C207        H215   1.084       .  S
C208        H216   1.083       .  S
C209        C210   1.205       .  T
C211        C212   1.205       .  T
C217        C225   1.438       .  S
C217        C218   1.400       .  A
C217        C222   1.402       .  A
C218        C219   1.397       .  A
C218        H227   1.084       .  S
C219        C220   1.401       .  A
C219        H228   1.083       .  S
C220        C223   1.438       .  S
C220        C221   1.401       .  A
C221        C222   1.399       .  A
C221        H229   1.084       .  S
C222        H230   1.083       .  S
C223        C224   1.205       .  T
C225        C226   1.205       .  T
C231        C239   1.442       .  S
C231        C232   1.402   1_545  A
C231        C236   1.401       .  A
C232        C233   1.401       .  A
C232        H241   1.083       .  S
C233        C234   1.402   1_565  A
C233        H242   1.084       .  S
C234        C237   1.442       .  S
C234        C235   1.401       .  A
C235        C236   1.399       .  A
C235        H243   1.083       .  S
C236        H244   1.084       .  S
C237        C238   1.207   1_545  T
C239        C240   1.207       .  T
C245        C253   1.440       .  S
C245        C246   1.401       .  A
C245        C250   1.402       .  A
C246        C247   1.397       .  A
C246        H255   1.084       .  S
C247        C248   1.400       .  A
C247        H256   1.084   1_554  S
C248        C251   1.439   1_554  S
C248        C249   1.402       .  A
C249        C250   1.401       .  A
C249        H257   1.083       .  S
C250        H258   1.083       .  S
C251        C252   1.206       .  T
C253        C254   1.206       .  T
C259        C267   1.439       .  S
C259        C260   1.401   1_554  A
C259        C264   1.401       .  A
C260        C261   1.398       .  A
C260        H269   1.084       .  S
C261        C262   1.401       .  A
C261        H270   1.083       .  S
C262        C265   1.439       .  S
C262        C263   1.401   1_556  A
C263        C264   1.399       .  A
C263        H271   1.084       .  S
C264        H272   1.083       .  S
C265        C266   1.206       .  T
C267        C268   1.205       .  T
C273        C281   1.443       .  S
C273        C274   1.402       .  A
C273        C278   1.402       .  A
C274        C275   1.401       .  A
C274        H283   1.084       .  S
C275        C276   1.402       .  A
C275        H284   1.083       .  S
C276        C279   1.443       .  S
C276        C277   1.402       .  A
C277        C278   1.400       .  A
C277        H285   1.084   1_455  S
C278        H286   1.083   1_455  S
C279        C280   1.208       .  T
C281        C282   1.208       .  T
C287        C295   1.439       .  S
C287        C288   1.400       .  A
C287        C292   1.402       .  A
C288        C289   1.396       .  A
C288        H297   1.083       .  S
C289        C290   1.400       .  A
C289        H298   1.084       .  S
C290        C293   1.437       .  S
C290        C291   1.402       .  A
C291        C292   1.400       .  A
C291        H299   1.083       .  S
C292        H300   1.084       .  S
C293        C294   1.204       .  T
C295        C296   1.205       .  T
C301        C309   1.444       .  S
C301        C302   1.402       .  A
C301        C306   1.402       .  A
C302        C303   1.401       .  A
C302        H311   1.083       .  S
C303        C304   1.402       .  A
C303        H312   1.084       .  S
C304        C307   1.443       .  S
C304        C305   1.402       .  A
C305        C306   1.400       .  A
C305        H313   1.083       .  S
C306        H314   1.084       .  S
C307        C308   1.208       .  T
C309        C310   1.208       .  T
C315        C323   1.444       .  S
C315        C316   1.402       .  A
C315        C320   1.403       .  A
C316        C317   1.400       .  A
C316        H325   1.083       .  S
C317        C318   1.402       .  A
C317        H326   1.083       .  S
C318        C321   1.445       .  S
C318        C319   1.402       .  A
C319        C320   1.401       .  A
C319        H327   1.083       .  S
C320        H328   1.083       .  S
C321        C322   1.209       .  T
C323        C324   1.209       .  T
