geometry optimzed in LAMMPS
_audit_creation_date              2020-12-01 
_audit_creation_method            'lammps2cif' 
_symmetry_space_group_name_H-M    'P1' 
_symmetry_Int_Tables_number       1 
_symmetry_cell_setting            triclinic 
loop_ 
_symmetry_equiv_pos_as_xyz 
  x,y,z 
_cell_length_a                    30.44121626 
_cell_length_b                    30.329905016403835 
_cell_length_c                    46.91804830883588 
_cell_angle_alpha                 90.73693969264971 
_cell_angle_beta                  89.17401036053664 
_cell_angle_gamma                 120.16893215225947 
loop_ 
_atom_site_label 
_atom_site_type_symbol 
_atom_site_fract_x 
_atom_site_fract_y 
_atom_site_fract_z 
_atom_site_charge 
O1          O  0.71963169  0.55350106  0.49727403    -0.56600
C2          C  0.85913194  0.54667176  0.49479575     0.76000
O3          O  0.71853766  0.42494747  0.53641249    -0.57800
C4          C  0.67319279  0.51897389  0.49940188     0.76000
C5          C  0.73540610  0.44297678  0.44295679     0.78400
Cd6        Cd  0.75073505  0.49104656  0.49804654     1.37500
O7          O  0.83443116  0.57026016  0.49473952    -0.56600
O8          O  0.75417726  0.49059364  0.44609392    -0.55400
C9          C  0.74496404  0.45677849  0.55568065     0.78300
O10         O  0.72299722  0.41658698  0.46554470    -0.57800
O11         O  0.83345953  0.49842927  0.49591223    -0.56300
O12         O  0.66394651  0.47357141  0.50105690    -0.56200
O13         O  0.77280920  0.50260232  0.54815142    -0.55400
O14         O  0.58064743  0.26651304  0.17388093    -0.56600
C15         C  0.60984153  0.43302848  0.17010367     0.76000
O16         O  0.72062492  0.40209728  0.19830617    -0.57800
C17         C  0.61519309  0.25444916  0.17200889     0.76000
C18         C  0.65999642  0.36490262  0.10800661     0.78400
Cd19       Cd  0.64322286  0.35987532  0.16828190     1.37500
O20         O  0.57741063  0.38627999  0.17485077    -0.56600
O21         O  0.61703487  0.33651627  0.11952322    -0.55400
C22         C  0.69535420  0.38870759  0.22158008     0.78300
O23         O  0.69703512  0.39197906  0.12451150    -0.57800
O24         O  0.65500318  0.44386319  0.16476400    -0.56300
O25         O  0.66054185  0.29059683  0.16886531    -0.56200
O26         O  0.64734821  0.36260117  0.21966548    -0.55400
O27         O  0.38222264  0.63343537  0.49986069    -0.56600
C28         C  0.24077704  0.63862654  0.50009492     0.76000
O29         O  0.36936969  0.76096060  0.53752036    -0.57800
C30         C  0.42851460  0.66883130  0.50025142     0.76000
C31         C  0.36374259  0.73352813  0.44364255     0.78400
Cd32       Cd  0.34924968  0.69389608  0.50058198     1.37500
O33         O  0.26534113  0.61493612  0.49920851    -0.56600
O34         O  0.34306213  0.68647316  0.44915207    -0.55400
C35         C  0.35983519  0.73080036  0.55828595     0.78300
O36         O  0.37841619  0.76399285  0.46485366    -0.57800
O37         O  0.26656022  0.68683335  0.50150176    -0.56300
O38         O  0.43703718  0.71418234  0.50066256    -0.56200
O39         O  0.34628508  0.68498588  0.55207455    -0.55400
O40         O  0.48894610  0.72043727  0.16891507    -0.56600
C41         C  0.45873576  0.85599472  0.16388721     0.76000
O42         O  0.36849880  0.71734084  0.12239941    -0.57800
C43         C  0.45453874  0.67367563  0.17135848     0.76000
C44         C  0.38269780  0.73503174  0.21993116     0.78400
Cd45       Cd  0.42589509  0.74936691  0.16425357     1.37500
O46         O  0.49108816  0.84187666  0.16833057    -0.56600
O47         O  0.43013801  0.76003681  0.21497547    -0.55400
C48         C  0.40533709  0.73130942  0.10475319     0.78300
O49         O  0.35354683  0.71613687  0.19849943    -0.57800
O50         O  0.41341890  0.82127382  0.15909868    -0.56300
O51         O  0.40877776  0.66341898  0.17060419    -0.56200
O52         O  0.44975113  0.75252981  0.11490240    -0.55400
O53         O  0.23430115  0.76423423  0.83465602    -0.56600
C54         C  0.39716492  0.87337184  0.83817153     0.76000
O55         O  0.33606144  0.72604536  0.87689770    -0.57800
C56         C  0.20939705  0.71580234  0.83361124     0.76000
C57         C  0.34090963  0.74407354  0.78241077     0.78400
Cd58       Cd  0.31784822  0.76899173  0.83769729     1.37500
O59         O  0.35112622  0.86178894  0.83515497    -0.56600
O60         O  0.32334212  0.77365926  0.78648745    -0.55400
C61         C  0.32068117  0.74528108  0.89610791     0.78300
O62         O  0.34819594  0.72468102  0.80446242    -0.57800
O63         O  0.40564714  0.83699118  0.84151004    -0.56300
O64         O  0.23486608  0.69323085  0.83394875    -0.56200
O65         O  0.30528298  0.77473654  0.88800549    -0.55400
O66         O  0.68389846  0.27990253  0.82956577    -0.56600
C67         C  0.82591374  0.42562737  0.82797996     0.76000
O68         O  0.68854321  0.41260529  0.79351465    -0.57800
C69         C  0.63777755  0.26889425  0.83152883     0.76000
C70         C  0.70947423  0.40059466  0.88802810     0.78400
Cd71       Cd  0.71737136  0.37322503  0.83007761     1.37500
O72         O  0.80054985  0.37719617  0.82858576    -0.56600
O73         O  0.72499677  0.37029582  0.88092322    -0.55400
C74         C  0.70092386  0.39342456  0.77279481     0.78300
O75         O  0.69681538  0.41954175  0.86786597    -0.57800
O76         O  0.80085298  0.44866992  0.82802968    -0.56300
O77         O  0.62946115  0.30574753  0.83307346    -0.56200
O78         O  0.72019212  0.36635093  0.77909621    -0.55400
C79         C  0.47625525  0.01965001  0.83361526     0.19900
C80         C  0.46999453  0.05917691  0.84481338    -0.18200
C81         C  0.50984784  0.10964917  0.84380418    -0.10500
C82         C  0.55668531  0.12184831  0.83088265     0.22100
C83         C  0.56273643  0.08221309  0.81946106    -0.19800
C84         C  0.52294965  0.03163015  0.82069953    -0.10700
C85         C  0.60030959  0.17504331  0.82967307    -0.14800
C86         C  0.59476700  0.21617600  0.83215889    -0.28700
C87         C  0.43308002  0.96654386  0.83519338    -0.03000
C88         C  0.43981742  0.92626257  0.83737219    -0.39500
H89         H  0.43440841  0.05084718  0.85488572     0.13300
H90         H  0.50383367  0.13855374  0.85372770     0.12900
H91         H  0.59829032  0.09045303  0.80937716     0.12300
H92         H  0.52861395  0.00217928  0.81114927     0.12600
H93         H  0.63808416  0.18052710  0.82602238     0.15300
H94         H  0.55725419  0.21176947  0.83424824     0.14100
H95         H  0.39477186  0.96061485  0.83561590     0.11800
H96         H  0.47789950  0.93194074  0.83872181     0.13800
C97         C  0.96467814  0.53750802  0.82779169     0.19900
C98         C  0.98670076  0.58987245  0.82228814    -0.18200
C99         C  0.03933221  0.62228853  0.82334590    -0.10500
C100        C  0.07130448  0.60302918  0.83020294     0.22100
C101        C  0.04932172  0.55063255  0.83561609    -0.19800
C102        C  0.99666585  0.51819665  0.83456841    -0.10700
C103        C  0.12759116  0.63547026  0.83129525    -0.14800
C104        C  0.15336672  0.68690126  0.83221521    -0.28700
C105        C  0.90831631  0.50538591  0.82713994    -0.03000
C106        C  0.88202748  0.45396637  0.82756110    -0.39500
H107        H  0.96304431  0.60583980  0.81701988     0.13300
H108        H  0.05446732  0.66207217  0.81838677     0.12900
H109        H  0.07300864  0.53471045  0.84092694     0.12300
H110        H  0.98156314  0.47842487  0.83952087     0.12600
H111        H  0.14898469  0.61562643  0.83194581     0.15300
H112        H  0.13371857  0.70839231  0.83253616     0.14100
H113        H  0.88722893  0.52549491  0.82616832     0.11800
H114        H  0.90120304  0.43205741  0.82771914     0.13800
C115        C  0.34874758  0.69980442  0.02905957     0.19900
C116        C  0.30600906  0.69783468  0.01687115    -0.18200
C117        C  0.30209417  0.69924057  0.98728382    -0.10500
C118        C  0.34093668  0.70248888  0.96920673     0.22100
C119        C  0.38210395  0.70117878  0.98125924    -0.19800
C120        C  0.38611403  0.69992971  0.01087445    -0.10700
C121        C  0.34002476  0.70865541  0.93789248    -0.14800
C122        C  0.31983507  0.73494769  0.92672002    -0.28700
C123        C  0.35351753  0.70263350  0.06067619    -0.03000
C124        C  0.39882322  0.72452424  0.07361949    -0.39500
H125        H  0.27617886  0.69660905  0.03030996     0.13300
H126        H  0.26876717  0.69811198  0.97864612     0.12900
H127        H  0.41197045  0.70261158  0.96776732     0.12300
H128        H  0.41858692  0.69919615  0.01934622     0.12600
H129        H  0.35956205  0.69489628  0.92404945     0.15300
H130        H  0.30351597  0.75185961  0.94071529     0.14100
H131        H  0.31927415  0.68954740  0.07354679     0.11800
H132        H  0.43348637  0.74019854  0.06097867     0.13800
C133        C  0.35762866  0.72928487  0.64090235     0.19900
C134        C  0.36153917  0.69784457  0.66129433    -0.18200
C135        C  0.35923430  0.70663171  0.69053402    -0.10500
C136        C  0.35268759  0.74715707  0.70003831     0.22100
C137        C  0.34920464  0.77876008  0.67962122    -0.19800
C138        C  0.35153189  0.77000840  0.65046663    -0.10700
C139        C  0.34643763  0.75688213  0.73062649    -0.14800
C140        C  0.35167040  0.73272218  0.75318625    -0.28700
C141        C  0.35702657  0.71631308  0.61009519    -0.03000
C142        C  0.36369038  0.74787787  0.58831234    -0.39500
H143        H  0.36580952  0.66589887  0.65456042     0.13300
H144        H  0.36149862  0.68089677  0.70536966     0.12900
H145        H  0.34370060  0.81000824  0.68624344     0.12300
H146        H  0.34703310  0.79444749  0.63566652     0.12600
H147        H  0.33600755  0.78579587  0.73476914     0.15300
H148        H  0.36328888  0.70451266  0.75049912     0.14100
H149        H  0.35085299  0.67852368  0.60512487     0.11800
H150        H  0.37216291  0.78664183  0.59225025     0.13800
C151        C  0.37951769  0.74444161  0.30209164     0.19900
C152        C  0.41323673  0.78009406  0.32193599    -0.18200
C153        C  0.40287874  0.77339173  0.35121576    -0.10500
C154        C  0.35849652  0.73042648  0.36132574     0.22100
C155        C  0.32444964  0.69514221  0.34145091    -0.19800
C156        C  0.33466796  0.70199198  0.31216572    -0.10700
C157        C  0.34879180  0.71799384  0.39217814    -0.14800
C158        C  0.37119161  0.75145590  0.41380752    -0.28700
C159        C  0.39469317  0.75113254  0.27148460    -0.03000
C160        C  0.36288102  0.72794291  0.24949345    -0.39500
H161        H  0.44838427  0.81284571  0.31477236     0.13300
H162        H  0.43073785  0.80078148  0.36575383     0.12900
H163        H  0.29030150  0.66132884  0.34866429     0.12300
H164        H  0.30831661  0.67296301  0.29771832     0.12600
H165        H  0.32221309  0.67835737  0.39733631     0.15300
H166        H  0.39573832  0.79183850  0.40975830     0.14100
H167        H  0.43471844  0.77695029  0.26686694     0.11800
H168        H  0.32235237  0.70364432  0.25300123     0.13800
C169        C  0.54927041  0.10606988  0.17378202     0.19900
C170        C  0.49948329  0.06572764  0.17836534    -0.18200
C171        C  0.48843314  0.01494937  0.17799249    -0.10500
C172        C  0.52700090  0.00301948  0.17273573     0.22100
C173        C  0.57688197  0.04319011  0.16867430    -0.19800
C174        C  0.58794466  0.09396884  0.16890493    -0.10700
C175        C  0.51661870  0.94935990  0.17168557    -0.14800
C176        C  0.47111194  0.90979555  0.16437190    -0.28700
C177        C  0.55865992  0.15962603  0.17374845    -0.03000
C178        C  0.60529556  0.20143923  0.17318654    -0.39500
H179        H  0.46887632  0.07350763  0.18234029     0.13300
H180        H  0.44971161  0.98531371  0.18221716     0.12900
H181        H  0.60737029  0.03521269  0.16473638     0.12300
H182        H  0.62680919  0.12302131  0.16477340     0.12600
H183        H  0.54757883  0.94247476  0.17617670     0.15300
H184        H  0.44062994  0.91656253  0.15859661     0.14100
H185        H  0.52583707  0.16482339  0.17420412     0.11800
H186        H  0.63882791  0.19773340  0.17323846     0.13800
C187        C  0.52162318  0.59406224  0.17372005     0.19900
C188        C  0.56487640  0.59863051  0.15997060    -0.18200
C189        C  0.57480138  0.55834020  0.15996400    -0.10500
C190        C  0.54213959  0.51251921  0.17434767     0.22100
C191        C  0.49890466  0.50800073  0.18821271    -0.19800
C192        C  0.48882790  0.54830826  0.18808861    -0.10700
C193        C  0.55164955  0.46870991  0.17486643    -0.14800
C194        C  0.59807106  0.47470956  0.17042018    -0.28700
C195        C  0.51204458  0.63764766  0.17240345    -0.03000
C196        C  0.46533525  0.63169765  0.17479883    -0.39500
H197        H  0.59063331  0.63322016  0.14863422     0.13300
H198        H  0.60760730  0.56320754  0.14808467     0.12900
H199        H  0.47306494  0.47331364  0.19944017     0.12300
H200        H  0.45572127  0.54358434  0.19960732     0.12600
H201        H  0.52005641  0.43095421  0.17970020     0.15300
H202        H  0.63036645  0.51255427  0.16704246     0.14100
H203        H  0.54390202  0.67520678  0.16748335     0.11800
H204        H  0.43267481  0.59396865  0.17795856     0.13800
C205        C  0.70413537  0.39974829  0.03004373     0.19900
C206        C  0.71732548  0.44236710  0.01287341    -0.18200
C207        C  0.71959197  0.43872512  0.98304776    -0.10500
C208        C  0.70974171  0.39256432  0.97009950     0.22100
C209        C  0.69768097  0.35053233  0.98740855    -0.19800
C210        C  0.69456375  0.35389119  0.01694952    -0.10700
C211        C  0.71456736  0.38670910  0.93894555    -0.14800
C212        C  0.70619477  0.41240899  0.91849329    -0.28700
C213        C  0.70114184  0.40332544  0.06157961    -0.03000
C214        C  0.66522877  0.36419256  0.07677198    -0.39500
H215        H  0.72538636  0.47825544  0.02253334     0.13300
H216        H  0.73019124  0.47216386  0.97029594     0.12900
H217        H  0.69062159  0.31477280  0.97800163     0.12300
H218        H  0.68561808  0.32073175  0.02959016     0.12600
H219        H  0.72286607  0.35707645  0.93251564     0.15300
H220        H  0.69530248  0.44047289  0.92403225     0.14100
H221        H  0.72708289  0.43894372  0.07222940     0.11800
H222        H  0.63635398  0.33059223  0.06569364     0.13800
C223        C  0.70948970  0.39270376  0.69061071     0.19900
C224        C  0.74751800  0.39479457  0.67244026    -0.18200
C225        C  0.74533805  0.39983229  0.64304520    -0.10500
C226        C  0.70450595  0.40206499  0.63103985     0.22100
C227        C  0.66542919  0.39819381  0.64903046    -0.19800
C228        C  0.66808692  0.39408602  0.67865210    -0.10700
C229        C  0.70298805  0.40966992  0.59991477    -0.14800
C230        C  0.74518695  0.44264456  0.58555483    -0.28700
C231        C  0.71343494  0.38604421  0.72157918    -0.03000
C232        C  0.69360534  0.40170993  0.74259019    -0.39500
H233        H  0.77936556  0.39293815  0.68107137     0.13300
H234        H  0.77547013  0.40161033  0.62966207     0.12900
H235        H  0.63338173  0.39940164  0.64019634     0.12300
H236        H  0.63745164  0.39111379  0.69201499     0.12600
H237        H  0.66644710  0.39205200  0.58934043     0.15300
H238        H  0.78060499  0.46459712  0.59700489     0.14100
H239        H  0.73607848  0.36901847  0.72736392     0.11800
H240        H  0.67315787  0.42140181  0.73770913     0.13800
C241        C  0.10326157  0.61344359  0.49773655     0.19900
C242        C  0.08181218  0.64436790  0.50305726    -0.18200
C243        C  0.02925275  0.62411315  0.50209533    -0.09900
C244        C  0.99685949  0.57229675  0.49547399     0.22100
C245        C  0.01829878  0.54138797  0.49010461    -0.19800
C246        C  0.07085310  0.56164411  0.49104717    -0.10700
C247        C  0.94062890  0.54824502  0.49498193    -0.14800
C248        C  0.91519386  0.57395819  0.49401876    -0.28700
C249        C  0.15946018  0.63733727  0.49882336    -0.03000
C250        C  0.18477956  0.61147993  0.49933638    -0.39500
H251        H  0.10583366  0.68439738  0.50825901     0.13300
H252        H  0.01447073  0.64912652  0.50706332     0.12900
H253        H  0.99424747  0.50132063  0.48500192     0.12300
H254        H  0.08553613  0.53652179  0.48617065     0.12600
H255        H  0.91896914  0.50680419  0.49526074     0.15300
H256        H  0.93510954  0.61519495  0.49281623     0.14100
H257        H  0.18119144  0.67876867  0.49962092     0.11800
H258        H  0.16486939  0.57018732  0.49926640     0.13800
C259        C  0.59241855  0.58475947  0.49867925     0.19900
C260        C  0.59945188  0.63159786  0.50871031    -0.18200
C261        C  0.55892451  0.64104091  0.50964913    -0.10500
C262        C  0.51037882  0.60401035  0.49997894     0.22100
C263        C  0.50337908  0.55715723  0.48994469    -0.19800
C264        C  0.54388285  0.54768188  0.48906681    -0.10700
C265        C  0.46625337  0.61265581  0.50026086    -0.14800
C266        C  0.47162362  0.65945448  0.50027426    -0.28700
C267        C  0.63643658  0.57600950  0.49823878    -0.03000
C268        C  0.63061440  0.52915507  0.49982506    -0.39500
H269        H  0.63632411  0.66075825  0.51629176     0.13300
H270        H  0.56584580  0.67707955  0.51841110     0.12900
H271        H  0.46653178  0.52797381  0.48233966     0.12300
H272        H  0.53708470  0.51162667  0.48036365     0.12600
H273        H  0.42824570  0.57951645  0.49937307     0.15300
H274        H  0.50922281  0.69301335  0.49977609     0.14100
H275        H  0.67455739  0.60900159  0.49769532     0.11800
H276        H  0.59285648  0.49612711  0.50195628     0.13800
C277        C  0.71245390  0.39736219  0.30330123     0.19900
C278        C  0.68498492  0.36391696  0.32559193    -0.18200
C279        C  0.69704667  0.37880363  0.35405106    -0.10500
C280        C  0.73700552  0.42788513  0.36094366     0.22100
C281        C  0.76564140  0.46075609  0.33860274    -0.19800
C282        C  0.75363692  0.44574317  0.31007858    -0.10700
C283        C  0.74716975  0.44800394  0.39074007    -0.14800
C284        C  0.72763090  0.41934799  0.41434982    -0.28700
C285        C  0.69316172  0.38214117  0.27377318    -0.03000
C286        C  0.72017704  0.40332132  0.24976033    -0.39500
H287        H  0.65287025  0.32655107  0.32097575     0.13300
H288        H  0.67332856  0.35237028  0.37035779     0.12900
H289        H  0.79643731  0.49888315  0.34322912     0.12300
H290        H  0.77512562  0.47301420  0.29356418     0.12600
H291        H  0.77129858  0.48902085  0.39331188     0.15300
H292        H  0.70548332  0.37813089  0.41301138     0.14100
H293        H  0.65381508  0.35187283  0.27178600     0.11800
H294        H  0.76028776  0.43160777  0.25065327     0.13800
loop_ 
_geom_bond_atom_site_label_1 
_geom_bond_atom_site_label_2 
_geom_bond_distance 
_geom_bond_site_symmetry_2 
_ccdc_geom_bond_type 
O1            C4   1.271       .  A
O1           Cd6   2.508       .  S
C2           O11   1.267       .  A
C2            O7   1.272       .  A
C2          C248   1.476       .  S
O3            C9   1.271       .  A
O3           Cd6   2.507       .  S
C4           O12   1.263       .  A
C4          C268   1.476       .  S
C5           O10   1.270       .  A
C5            O8   1.265       .  A
C5          C284   1.478       .  S
Cd6          O13   2.427       .  S
Cd6          O12   2.422       .  S
Cd6          O11   2.414       .  S
Cd6           O7   2.477       .  S
Cd6          O10   2.484       .  S
Cd6           O8   2.438       .  S
C9           O13   1.263       .  A
C9          C230   1.472       .  S
O14          C17   1.277       .  A
O14         Cd19   2.510       .  S
C15          O24   1.264       .  A
C15          O20   1.277       .  A
C15         C194   1.477       .  S
O16          C22   1.274       .  A
O16         Cd19   2.488       .  S
C17          O25   1.267       .  A
C17         C178   1.481       .  S
C18          O23   1.274       .  A
C18          O21   1.266       .  A
C18         C214   1.473       .  S
Cd19         O26   2.414       .  S
Cd19         O25   2.410       .  S
Cd19         O24   2.395       .  S
Cd19         O20   2.518       .  S
Cd19         O23   2.490       .  S
Cd19         O21   2.411       .  S
C22          O26   1.269       .  A
C22         C286   1.481       .  S
O27          C30   1.272       .  A
O27         Cd32   2.494       .  S
C28          O37   1.266       .  A
C28          O33   1.271       .  A
C28         C250   1.475       .  S
O29          C35   1.272       .  A
O29         Cd32   2.491       .  S
C30          O38   1.265       .  A
C30         C266   1.476       .  S
C31          O36   1.272       .  A
C31          O34   1.266       .  A
C31         C158   1.481       .  S
Cd32         O39   2.430       .  S
Cd32         O38   2.422       .  S
Cd32         O37   2.416       .  S
Cd32         O33   2.473       .  S
Cd32         O36   2.504       .  S
Cd32         O34   2.422       .  S
C35          O39   1.266       .  A
C35         C142   1.480       .  S
O40          C43   1.276       .  A
O40         Cd45   2.492       .  S
C41          O50   1.267       .  A
C41          O46   1.276       .  A
C41         C176   1.479       .  S
O42          C48   1.276       .  A
O42         Cd45   2.489       .  S
C43          O51   1.267       .  A
C43         C196   1.477       .  S
C44          O49   1.275       .  A
C44          O47   1.268       .  A
C44         C160   1.479       .  S
Cd45         O52   2.405       .  S
Cd45         O51   2.410       .  S
Cd45         O50   2.410       .  S
Cd45         O46   2.500       .  S
Cd45         O49   2.481       .  S
Cd45         O47   2.394       .  S
C48          O52   1.267       .  A
C48         C124   1.475       .  S
O53          C56   1.271       .  A
O53         Cd58   2.480       .  S
C54          O63   1.265       .  A
C54          O59   1.272       .  A
C54          C88   1.472       .  S
O55          C61   1.273       .  A
O55         Cd58   2.491       .  S
C56          O64   1.267       .  A
C56         C104   1.477       .  S
C57          O62   1.272       .  A
C57          O60   1.266       .  A
C57         C140   1.481       .  S
Cd58         O65   2.404       .  S
Cd58         O64   2.421       .  S
Cd58         O63   2.428       .  S
Cd58         O59   2.470       .  S
Cd58         O62   2.499       .  S
Cd58         O60   2.407       .  S
C61          O65   1.264       .  A
C61         C122   1.471       .  S
O66          C69   1.272       .  A
O66         Cd71   2.480       .  S
C67          O76   1.267       .  A
C67          O72   1.271       .  A
C67         C106   1.477       .  S
O68          C74   1.273       .  A
O68         Cd71   2.508       .  S
C69          O77   1.265       .  A
C69          C86   1.472       .  S
C70          O75   1.273       .  A
C70          O73   1.266       .  A
C70         C212   1.483       .  S
Cd71         O78   2.402       .  S
Cd71         O77   2.421       .  S
Cd71         O76   2.420       .  S
Cd71         O72   2.474       .  S
Cd71         O75   2.509       .  S
Cd71         O73   2.407       .  S
C74          O78   1.265       .  A
C74         C232   1.482       .  S
C79          C87   1.483   1_545  S
C79          C80   1.400       .  A
C79          C84   1.408       .  A
C80          C81   1.397       .  A
C80          H89   1.083       .  S
C81          C82   1.410       .  A
C81          H90   1.080       .  S
C82          C85   1.489       .  S
C82          C83   1.403       .  A
C83          C84   1.399       .  A
C83          H91   1.084       .  S
C84          H92   1.082       .  S
C85          H93   1.087       .  S
C85          C86   1.344       .  D
C86          H94   1.084       .  S
C87          H95   1.087       .  S
C87          C88   1.342       .  D
C88          H96   1.086       .  S
C97         C105   1.488       .  S
C97          C98   1.405       .  A
C97         C102   1.407       .  A
C98          C99   1.398   1_655  A
C98         H107   1.083       .  S
C99         C100   1.406       .  A
C99         H108   1.081       .  S
C100        C103   1.488       .  S
C100        C101   1.405       .  A
C101        C102   1.398   1_455  A
C101        H109   1.083       .  S
C102        H110   1.080       .  S
C103        H111   1.087       .  S
C103        C104   1.349       .  D
C104        H112   1.084       .  S
C105        H113   1.087       .  S
C105        C106   1.349       .  D
C106        H114   1.083       .  S
C115        C123   1.490       .  S
C115        C116   1.402       .  A
C115        C120   1.411       .  A
C116        C117   1.398   1_554  A
C116        H125   1.083       .  S
C117        C118   1.408       .  A
C117        H126   1.082       .  S
C118        C121   1.486       .  S
C118        C119   1.401       .  A
C119        C120   1.399   1_556  A
C119        H127   1.083       .  S
C120        H128   1.081       .  S
C121        H129   1.087       .  S
C121        C122   1.342       .  D
C122        H130   1.086       .  S
C123        H131   1.087       .  S
C123        C124   1.344       .  D
C124        H132   1.085       .  S
C133        C141   1.491       .  S
C133        C134   1.407       .  A
C133        C138   1.405       .  A
C134        C135   1.402       .  A
C134        H143   1.083       .  S
C135        C136   1.407       .  A
C135        H144   1.081       .  S
C136        C139   1.490       .  S
C136        C137   1.406       .  A
C137        C138   1.398       .  A
C137        H145   1.083       .  S
C138        H146   1.081       .  S
C139        H147   1.087       .  S
C139        C140   1.351       .  D
C140        H148   1.083       .  S
C141        H149   1.087       .  S
C141        C142   1.351       .  D
C142        H150   1.083       .  S
C151        C159   1.487       .  S
C151        C152   1.406       .  A
C151        C156   1.405       .  A
C152        C153   1.399       .  A
C152        H161   1.084       .  S
C153        C154   1.406       .  A
C153        H162   1.081       .  S
C154        C157   1.488       .  S
C154        C155   1.406       .  A
C155        C156   1.399       .  A
C155        H163   1.084       .  S
C156        H164   1.081       .  S
C157        H165   1.087       .  S
C157        C158   1.350       .  D
C158        H166   1.085       .  S
C159        H167   1.087       .  S
C159        C160   1.350       .  D
C160        H168   1.084       .  S
C169        C177   1.501       .  S
C169        C170   1.405       .  A
C169        C174   1.413       .  A
C170        C171   1.401       .  A
C170        H179   1.083       .  S
C171        C172   1.409       .  A
C171        H180   1.081   1_545  S
C172        C175   1.494   1_545  S
C172        C173   1.402       .  A
C173        C174   1.401       .  A
C173        H181   1.083       .  S
C174        H182   1.079       .  S
C175        H183   1.087       .  S
C175        C176   1.345       .  D
C176        H184   1.085       .  S
C177        H185   1.087       .  S
C177        C178   1.347       .  D
C178        H186   1.082       .  S
C187        C195   1.492       .  S
C187        C188   1.401       .  A
C187        C192   1.410       .  A
C188        C189   1.398       .  A
C188        H197   1.083       .  S
C189        C190   1.411       .  A
C189        H198   1.081       .  S
C190        C193   1.496       .  S
C190        C191   1.404       .  A
C191        C192   1.402       .  A
C191        H199   1.083       .  S
C192        H200   1.081       .  S
C193        H201   1.087       .  S
C193        C194   1.344       .  D
C194        H202   1.084       .  S
C195        H203   1.087       .  S
C195        C196   1.343       .  D
C196        H204   1.085       .  S
C205        C213   1.487       .  S
C205        C206   1.406       .  A
C205        C210   1.405       .  A
C206        C207   1.406   1_554  A
C206        H215   1.083       .  S
C207        C208   1.407       .  A
C207        H216   1.082       .  S
C208        C211   1.484       .  S
C208        C209   1.403       .  A
C209        C210   1.394   1_556  A
C209        H217   1.083       .  S
C210        H218   1.083       .  S
C211        H219   1.087       .  S
C211        C212   1.349       .  D
C212        H220   1.085       .  S
C213        H221   1.086       .  S
C213        C214   1.344       .  D
C214        H222   1.087       .  S
C223        C231   1.484       .  S
C223        C224   1.404       .  A
C223        C228   1.407       .  A
C224        C225   1.396       .  A
C224        H233   1.083       .  S
C225        C226   1.404       .  A
C225        H234   1.083       .  S
C226        C229   1.486       .  S
C226        C227   1.405       .  A
C227        C228   1.404       .  A
C227        H235   1.083       .  S
C228        H236   1.082       .  S
C229        H237   1.087       .  S
C229        C230   1.344       .  D
C230        H238   1.086       .  S
C231        H239   1.087       .  S
C231        C232   1.349       .  D
C232        H240   1.085       .  S
C241        C249   1.487       .  S
C241        C242   1.405       .  A
C241        C246   1.407       .  A
C242        C243   1.397       .  A
C242        H251   1.083       .  S
C243        C244   1.406   1_455  A
C243        H252   1.081       .  S
C244        C247   1.486       .  S
C244        C245   1.404   1_655  A
C245        C246   1.397       .  A
C245        H253   1.083   1_455  S
C246        H254   1.081       .  S
C247        H255   1.087       .  S
C247        C248   1.349       .  D
C248        H256   1.083       .  S
C249        H257   1.087       .  S
C249        C250   1.348       .  D
C250        H258   1.083       .  S
C259        C267   1.491       .  S
C259        C260   1.402       .  A
C259        C264   1.410       .  A
C260        C261   1.400       .  A
C260        H269   1.084       .  S
C261        C262   1.410       .  A
C261        H270   1.081       .  S
C262        C265   1.492       .  S
C262        C263   1.403       .  A
C263        C264   1.400       .  A
C263        H271   1.084       .  S
C264        H272   1.081       .  S
C265        H273   1.087       .  S
C265        C266   1.345       .  D
C266        H274   1.084       .  S
C267        H275   1.087       .  S
C267        C268   1.344       .  D
C268        H276   1.085       .  S
C277        C285   1.487       .  S
C277        C278   1.404       .  A
C277        C282   1.406       .  A
C278        C279   1.398       .  A
C278        H287   1.083       .  S
C279        C280   1.407       .  A
C279        H288   1.080       .  S
C280        C283   1.491       .  S
C280        C281   1.407       .  A
C281        C282   1.401       .  A
C281        H289   1.083       .  S
C282        H290   1.082       .  S
C283        H291   1.087       .  S
C283        C284   1.350       .  D
C284        H292   1.083       .  S
C285        H293   1.087       .  S
C285        C286   1.349       .  D
C286        H294   1.085       .  S
