geometry optimzed in LAMMPS
_audit_creation_date              2020-12-01 
_audit_creation_method            'lammps2cif' 
_symmetry_space_group_name_H-M    'P1' 
_symmetry_Int_Tables_number       1 
_symmetry_cell_setting            triclinic 
loop_ 
_symmetry_equiv_pos_as_xyz 
  x,y,z 
_cell_length_a                    29.55432033 
_cell_length_b                    29.54617109381633 
_cell_length_c                    41.271850376943824 
_cell_angle_alpha                 89.3967642409473 
_cell_angle_beta                  90.56093699499355 
_cell_angle_gamma                 89.85336297574004 
loop_ 
_atom_site_label 
_atom_site_type_symbol 
_atom_site_fract_x 
_atom_site_fract_y 
_atom_site_fract_z 
_atom_site_charge 
In1        In  0.98382854  0.76402272  0.62078491     1.36900
C2          C  0.05633011  0.79228558  0.58861715     0.78100
O3          O  0.02935142  0.70708474  0.63716976    -0.60300
O4          O  0.96432091  0.69057865  0.61837181    -0.51300
C5          C  0.95155786  0.78740730  0.67849199     0.70800
O6          O  0.98883611  0.80215394  0.66789443    -0.46100
C7          C  0.92503578  0.80496521  0.58097139     0.75500
O8          O  0.04972069  0.80359257  0.61770884    -0.58000
O9          O  0.93901605  0.76532248  0.57583369    -0.48100
O10         O  0.02643757  0.76698785  0.57675996    -0.54400
C11         C  0.00173550  0.67646220  0.62961156     0.85600
O12         O  0.93182659  0.75964816  0.66011488    -0.56300
O13         O  0.93944178  0.82222857  0.60683088    -0.59600
In14       In  0.77786505  0.93565360  0.91754299     1.36900
C15         C  0.82101426  0.00530964  0.94420706     0.78100
O16         O  0.72338280  0.98093299  0.89691373    -0.60300
O17         O  0.70341678  0.92033776  0.92091401    -0.51300
C18         C  0.81466169  0.90879979  0.86189839     0.70800
O19         O  0.83105035  0.94037772  0.87855456    -0.46100
C20         C  0.79222343  0.87404981  0.96400400     0.75500
O21         O  0.78015585  0.00767938  0.93531191    -0.58000
O22         O  0.77378782  0.91160482  0.96946346    -0.48100
O23         O  0.84008248  0.96815055  0.93836814    -0.54400
C24         C  0.69130660  0.95634063  0.90657099     0.85600
O25         O  0.77806012  0.89314967  0.87248910    -0.56300
O26         O  0.79953764  0.86648793  0.93458829    -0.59600
In27       In  0.00948306  0.26082322  0.12234115     1.36900
C28         C  0.08908298  0.24747179  0.09550266     0.78100
O29         O  0.99651063  0.19614642  0.09696818    -0.60300
O30         O  0.95616529  0.25275690  0.08269412    -0.51300
C31         C  0.97126780  0.23097550  0.17655154     0.70800
O32         O  0.01193280  0.22231105  0.16977042    -0.46100
C33         C  0.01875534  0.34872288  0.13340397     0.75500
O34         O  0.07893173  0.22989554  0.12257943    -0.58000
O35         O  0.98808760  0.33329423  0.11502661    -0.48100
O36         O  0.05921756  0.27300765  0.08301389    -0.54400
C37         C  0.96601902  0.21156100  0.07840303     0.85600
O38         O  0.95065037  0.25535945  0.15597410    -0.56300
O39         O  0.04381360  0.31917265  0.14666738    -0.59600
In40       In  0.77221529  0.08900226  0.40699263     1.36900
C41         C  0.79726788  0.01563333  0.44014920     0.78100
O42         O  0.82082808  0.14328877  0.42213261    -0.60300
O43         O  0.76567177  0.13011333  0.45305509    -0.51300
C44         C  0.81326882  0.11335586  0.35285402     0.70800
O45         O  0.82903178  0.08276011  0.37140103    -0.46100
C46         C  0.68629637  0.07201682  0.39038837     0.75500
O47         O  0.80803446  0.02127437  0.41083234    -0.58000
O48         O  0.69917430  0.11104231  0.39848987    -0.48100
O49         O  0.77387121  0.04696946  0.45189228    -0.54400
C50         C  0.80193756  0.15154920  0.44852371     0.85600
O51         O  0.77564010  0.12960327  0.36125102    -0.56300
O52         O  0.71740500  0.04291691  0.38956047    -0.59600
In53       In  0.09008374  0.28168068  0.62334863     1.36900
C54         C  0.01519840  0.26400152  0.58925393     0.78100
O55         O  0.04703869  0.33947105  0.63991733    -0.60300
O56         O  0.11449661  0.35408967  0.62616184    -0.51300
C57         C  0.12237645  0.24226183  0.67765805     0.70800
O58         O  0.08540586  0.23039229  0.66461866    -0.46100
C59         C  0.14698909  0.24662902  0.58115464     0.75500
O60         O  0.01852635  0.25398369  0.61909002    -0.58000
O61         O  0.13662292  0.28809181  0.58055910    -0.48100
O62         O  0.04993477  0.28195515  0.57736241    -0.54400
C63         C  0.07663569  0.36926397  0.63494754     0.85600
O64         O  0.14069940  0.27608902  0.66434966    -0.56300
O65         O  0.12958132  0.22388151  0.60373040    -0.59600
In66       In  0.29967093  0.06235145  0.90828409     1.36900
C67         C  0.25275221  0.99402527  0.93375430     0.78100
O68         O  0.35499404  0.01614122  0.89147101    -0.60300
O69         O  0.37407659  0.07594997  0.91611152    -0.51300
C70         C  0.26837800  0.09203125  0.85056542     0.70800
O71         O  0.25142060  0.05865692  0.86525130    -0.46100
C72         C  0.28481654  0.12305475  0.95431604     0.75500
O73         O  0.23588594  0.03262349  0.92837690    -0.58000
O74         O  0.30306472  0.08528539  0.96025091    -0.48100
O75         O  0.29290292  0.98939687  0.92438526    -0.54400
C76         C  0.38664481  0.03983928  0.90286592     0.85600
O77         O  0.30293768  0.10812220  0.86423980    -0.56300
O78         O  0.27684842  0.13083449  0.92477300    -0.59600
In79       In  0.29573734  0.97561609  0.40311967     1.36900
C80         C  0.27258743  0.04855616  0.43597079     0.78100
O81         O  0.23847913  0.93501287  0.42249601    -0.60300
O82         O  0.30161726  0.92972601  0.44739168    -0.51300
C83         C  0.26414686  0.93778726  0.34920780     0.70800
O84         O  0.24812268  0.97431435  0.36010826    -0.46100
C85         C  0.38098525  0.99565156  0.38872500     0.75500
O86         O  0.25836685  0.04280512  0.40725199    -0.58000
O87         O  0.36993125  0.95883768  0.40231038    -0.48100
O88         O  0.29861716  0.01801808  0.44670045    -0.54400
C89         C  0.26048488  0.91831022  0.44600045     0.85600
O90         O  0.29759807  0.92209249  0.36495912    -0.56300
O91         O  0.34828150  0.02142699  0.38135169    -0.59600
In92       In  0.08283052  0.74687574  0.12661152     1.36900
C93         C  0.99927739  0.75654764  0.10367874     0.78100
O94         O  0.09243071  0.80807635  0.09575217    -0.60300
O95         O  0.13194153  0.75055500  0.08434845    -0.51300
C96         C  0.12196226  0.78449123  0.17878463     0.70800
O97         O  0.08271189  0.79465175  0.16890680    -0.46100
C98         C  0.07603091  0.65857003  0.13799004     0.75500
O99         O  0.01199079  0.77514969  0.12972593    -0.58000
O100        O  0.10997430  0.67547273  0.12400333    -0.48100
O101        O  0.02866368  0.73207468  0.09040123    -0.54400
C102        C  0.12128054  0.79095147  0.07741687     0.85600
O103        O  0.14054610  0.75339954  0.16303916    -0.56300
O104        O  0.04753020  0.68689606  0.14789334    -0.59600
C105        C  0.19776691  0.89646366  0.28500268     0.30300
C106        C  0.15986246  0.89445393  0.26436147    -0.36100
C107        C  0.15875274  0.85842394  0.24251842     0.16300
C108        C  0.19281243  0.82653086  0.24074434     0.22100
C109        C  0.23088095  0.82845280  0.26149537    -0.34200
C110        C  0.23177314  0.86444425  0.28360437     0.16200
O111        O  0.20505217  0.92688389  0.30766187    -0.26200
C112        C  0.24426507  0.91434297  0.32109721     0.06000
C113        C  0.26242439  0.87558756  0.30719340    -0.31100
O114        O  0.18459993  0.79585170  0.21828065    -0.22900
C115        C  0.14453509  0.80817308  0.20580742    -0.02900
C116        C  0.12705507  0.84684303  0.21997371    -0.17300
H117        H  0.13276675  0.91918590  0.26544567     0.20700
H118        H  0.25770148  0.80353745  0.26062860     0.19000
H119        H  0.29329109  0.85793590  0.31383161     0.19000
H120        H  0.09560199  0.86422448  0.21419729     0.14800
C121        C  0.14867442  0.87261539  0.01932706     0.30300
C122        C  0.14469860  0.91489010  0.00393759    -0.36100
C123        C  0.17936702  0.92634789  0.98258927     0.16300
C124        C  0.21575618  0.89830404  0.97680577     0.22100
C125        C  0.21936067  0.85544942  0.99186969    -0.34200
C126        C  0.18437483  0.84381141  0.01323550     0.16200
O127        O  0.12172486  0.85695707  0.04192356    -0.26200
C128        C  0.13992979  0.81738764  0.05043336     0.06000
C129        C  0.17881403  0.80700380  0.03320495    -0.31100
O130        O  0.24599962  0.91765113  0.95782455    -0.22900
C131        C  0.22829678  0.95828584  0.95122648    -0.02900
C132        C  0.18685146  0.96541456  0.96588525    -0.17300
H133        H  0.11722967  0.93791607  0.00910913     0.20700
H134        H  0.24807988  0.83345630  0.98804449     0.19000
H135        H  0.20084165  0.77792887  0.03616328     0.19000
H136        H  0.16643693  0.99589462  0.96566315     0.14800
C137        C  0.22681974  0.14349173  0.47464103     0.30300
C138        C  0.19886512  0.18155586  0.47885822    -0.36100
C139        C  0.19526110  0.19730067  0.51079899     0.16300
C140        C  0.21700297  0.17644043  0.53672588     0.22100
C141        C  0.24578202  0.13945886  0.53240403    -0.34200
C142        C  0.24981572  0.12424029  0.50061910     0.16200
O143        O  0.23228796  0.12039037  0.44761875    -0.26200
C144        C  0.25952254  0.08643771  0.45668655     0.06000
C145        C  0.27168951  0.08753422  0.48923113    -0.31100
O146        O  0.20451114  0.19264239  0.56483082    -0.22900
C147        C  0.17536197  0.22524243  0.55690761    -0.02900
C148        C  0.16842844  0.23004560  0.52366118    -0.17300
H149        H  0.17982881  0.19661565  0.45896325     0.20700
H150        H  0.26224042  0.12238804  0.55263290     0.19000
H151        H  0.29175900  0.06320121  0.50292724     0.19000
H152        H  0.14413695  0.25159188  0.51113213     0.14800
C153        C  0.19982658  0.12931095  0.78533234     0.30300
C154        C  0.16049786  0.13196663  0.76587287    -0.36100
C155        C  0.15889079  0.16734486  0.74278161     0.16300
C156        C  0.19371940  0.19792645  0.73906173     0.22100
C157        C  0.23309958  0.19513206  0.75836176    -0.34200
C158        C  0.23461277  0.15990011  0.78146211     0.16200
O159        O  0.20768782  0.10023605  0.80934666    -0.26200
C160        C  0.24809263  0.11230568  0.82094749     0.06000
C161        C  0.26641491  0.14919502  0.80448060    -0.31100
O162        O  0.18510244  0.22852132  0.71624052    -0.22900
C163        C  0.14409177  0.21767174  0.70513333    -0.02900
C164        C  0.12621441  0.17972772  0.72068599    -0.17300
H165        H  0.13273461  0.10842523  0.76884867     0.20700
H166        H  0.26046140  0.21914050  0.75581151     0.19000
H167        H  0.29781686  0.16659905  0.80954592     0.19000
H168        H  0.09398943  0.16344062  0.71616189     0.14800
C169        C  0.49892176  0.00273686  0.38244392     0.30300
C170        C  0.54354954  0.98691792  0.38513015    -0.36100
C171        C  0.57755212  0.01967681  0.38249281     0.16300
C172        C  0.56852454  0.06517238  0.37793886     0.22100
C173        C  0.52372533  0.08094472  0.37449349    -0.34200
C174        C  0.48956950  0.04796647  0.37681607     0.16200
O175        O  0.46209877  0.97828448  0.38651353    -0.26200
C176        C  0.42849750  0.00798045  0.38302662     0.06000
C177        C  0.44350019  0.05185241  0.37671508    -0.31100
O178        O  0.60562359  0.09016821  0.37918763    -0.22900
C179        C  0.63868605  0.06001181  0.38409244    -0.02900
C180        C  0.62313724  0.01573552  0.38604915    -0.17300
H181        H  0.55121741  0.95164040  0.39001188     0.20700
H182        H  0.51597592  0.11654991  0.37131410     0.19000
H183        H  0.42346047  0.08242355  0.37417370     0.19000
H184        H  0.64247104  0.98530168  0.39125770     0.14800
C185        C  0.87325764  0.22288037  0.49213117     0.30300
C186        C  0.91143962  0.25052441  0.49573328    -0.36100
C187        C  0.93085948  0.25170382  0.52683953     0.16300
C188        C  0.91374747  0.22770349  0.55283284     0.22100
C189        C  0.87468197  0.20104844  0.54941063    -0.34200
C190        C  0.85527778  0.19968662  0.51819174     0.16200
O191        O  0.85438274  0.21135877  0.46435592    -0.26200
C192        C  0.82324009  0.18106712  0.47265518     0.06000
C193        C  0.82189315  0.17280387  0.50589106    -0.31100
O194        O  0.94019422  0.22985002  0.57882087    -0.22900
C195        C  0.97463962  0.25549206  0.56922740    -0.02900
C196        C  0.97036911  0.27030322  0.53723167    -0.17300
H197        H  0.92674840  0.26750159  0.47523644     0.20700
H198        H  0.86192803  0.18064157  0.56921571     0.19000
H199        H  0.80282634  0.14702536  0.51858480     0.19000
H200        H  0.99423663  0.28989142  0.52316366     0.14800
C201        C  0.05888380  0.45874441  0.14640971     0.30300
C202        C  0.09157034  0.49234441  0.15214780    -0.36100
C203        C  0.07742752  0.53729137  0.14681185     0.16300
C204        C  0.03377756  0.54828494  0.13737935     0.22100
C205        C  0.00137112  0.51479248  0.13133603    -0.34200
C206        C  0.01576033  0.46998262  0.13593437     0.16200
O207        O  0.06523006  0.41451024  0.14811929    -0.26200
C208        C  0.02583454  0.39741775  0.13819077     0.06000
C209        C  0.99386883  0.43033663  0.13030576    -0.31100
O210        O  0.02764103  0.59221190  0.13385545    -0.22900
C211        C  0.06799236  0.60972607  0.14057516    -0.02900
C212        C  0.10052170  0.57724359  0.14851462    -0.17300
H213        H  0.12588960  0.48397920  0.15947796     0.20700
H214        H  0.96750454  0.52309514  0.12293879     0.19000
H215        H  0.95987709  0.42567501  0.12094358     0.19000
H216        H  0.13581175  0.58238324  0.15466811     0.14800
C217        C  0.24276452  0.17188136  0.02435379     0.30300
C218        C  0.22424042  0.16924838  0.05551357    -0.36100
C219        C  0.19069296  0.20128631  0.06248425     0.16300
C220        C  0.17690975  0.23414198  0.04046382     0.22100
C221        C  0.19658432  0.23782479  0.00979021    -0.34200
C222        C  0.22951433  0.20534033  0.00262066     0.16200
O223        O  0.26756095  0.14031918  0.01069817    -0.26200
C224        C  0.27019281  0.15373513  0.97990684     0.06000
C225        C  0.24774729  0.19431503  0.97360792    -0.31100
O226        O  0.14069424  0.25617880  0.05001024    -0.22900
C227        C  0.13129411  0.23749786  0.07859860    -0.02900
C228        C  0.16142991  0.20338796  0.08775959    -0.17300
H229        H  0.23246659  0.14174001  0.07206276     0.20700
H230        H  0.18425067  0.26180318  0.99177764     0.19000
H231        H  0.24126391  0.21033783  0.95032128     0.19000
H232        H  0.15964832  0.18092333  0.10858511     0.14800
C233        C  0.89884487  0.20285598  0.24020855     0.30300
C234        C  0.85887099  0.20453803  0.25813039    -0.36100
C235        C  0.85547034  0.17309797  0.28360542     0.16300
C236        C  0.88909659  0.14211275  0.29116041     0.22100
C237        C  0.92936743  0.14070944  0.27337579    -0.34200
C238        C  0.93281001  0.17223758  0.24780507     0.16200
O239        O  0.90823376  0.22797457  0.21458869    -0.26200
C240        C  0.94891375  0.21358827  0.20574195     0.06000
C241        C  0.96602274  0.17913534  0.22559794    -0.31100
O242        O  0.87855939  0.11603586  0.31615633    -0.22900
C243        C  0.83763291  0.13055553  0.32448754    -0.02900
C244        C  0.82169501  0.16598556  0.30513259    -0.17300
H245        H  0.83205545  0.22839416  0.25239012     0.20700
H246        H  0.95605494  0.11653414  0.27895123     0.19000
H247        H  0.99765186  0.16086400  0.22330684     0.19000
H248        H  0.79013008  0.18432994  0.30705961     0.14800
C249        C  0.50469448  0.02951376  0.89906720     0.30300
C250        C  0.54960360  0.04444615  0.89677336    -0.36100
C251        C  0.58304956  0.01067467  0.89821537     0.16300
C252        C  0.57308908  0.96534659  0.90227793     0.22100
C253        C  0.52813410  0.95030885  0.90387577    -0.34200
C254        C  0.49465048  0.98402372  0.90182833     0.16200
O255        O  0.46818498  0.05534693  0.89920740    -0.26200
C256        C  0.43431173  0.02594065  0.90136897     0.06000
C257        C  0.44870013  0.98111508  0.90294486    -0.31100
O258        O  0.60975362  0.93996594  0.90522829    -0.22900
C259        C  0.64357997  0.96934872  0.90243362    -0.02900
C260        C  0.62900355  0.01374762  0.89778787    -0.17300
H261        H  0.55792877  0.08000039  0.89446280     0.20700
H262        H  0.51985402  0.91485519  0.90695561     0.19000
H263        H  0.42826161  0.95094485  0.90543908     0.19000
H264        H  0.64936814  0.04405637  0.89586341     0.14800
C265        C  0.83940805  0.82731426  0.03428586     0.30300
C266        C  0.85963289  0.83080205  0.06508318    -0.36100
C267        C  0.89382195  0.79919907  0.07245660     0.16300
C268        C  0.90674527  0.76606655  0.05105377     0.22100
C269        C  0.88564934  0.76175348  0.02068624    -0.34200
C270        C  0.85196885  0.79369541  0.01315823     0.16200
O271        O  0.81300512  0.85800222  0.02034592    -0.26200
C272        C  0.80856579  0.84385768  0.98999188     0.06000
C273        C  0.83164473  0.80373826  0.98424089    -0.31100
O274        O  0.94385680  0.74482360  0.06051380    -0.22900
C275        C  0.95489535  0.76433713  0.08835999    -0.02900
C276        C  0.92469655  0.79806781  0.09726162    -0.17300
H277        H  0.85195480  0.85857528  0.08105484     0.20700
H278        H  0.89737792  0.73759191  0.00306698     0.19000
H279        H  0.83701101  0.78739201  0.96122557     0.19000
H280        H  0.92767047  0.82131617  0.11726822     0.14800
C281        C  0.89475824  0.07513504  0.98748070     0.30300
C282        C  0.93437236  0.08537804  0.00474968    -0.36100
C283        C  0.93387694  0.12595093  0.02196758     0.16300
C284        C  0.89728069  0.15509316  0.02189661     0.22100
C285        C  0.85758335  0.14491265  0.00439399    -0.34200
C286        C  0.85782417  0.10385557  0.98745254     0.16200
O287        O  0.88701234  0.03750790  0.97154625    -0.26200
C288        C  0.84456423  0.04200453  0.96107693     0.06000
C289        C  0.82461708  0.08262299  0.97018370    -0.31100
O290        O  0.90375738  0.19021275  0.04102396    -0.22900
C291        C  0.94482028  0.18293522  0.05363791    -0.02900
C292        C  0.96504846  0.14357760  0.04259105    -0.17300
H293        H  0.96304411  0.06252700  0.00559995     0.20700
H294        H  0.82812677  0.16671775  0.00478198     0.19000
H295        H  0.79023936  0.09397582  0.96576790     0.19000
H296        H  0.99763197  0.12946219  0.04945153     0.14800
C297        C  0.05087420  0.56860868  0.63738489     0.30300
C298        C  0.08616450  0.53670238  0.63995537    -0.36100
C299        C  0.07328575  0.49097677  0.63889183     0.16300
C300        C  0.02868827  0.47770533  0.63596683     0.22100
C301        C  0.99356447  0.50953980  0.63302607    -0.34200
C302        C  0.00645705  0.55511991  0.63368688     0.16200
O303        O  0.05509999  0.61309688  0.63714456    -0.26200
C304        C  0.01288129  0.62812898  0.63295585     0.06000
C305        C  0.98127332  0.59359114  0.63054272    -0.31100
O306        O  0.02416049  0.43337112  0.63523871    -0.22900
C307        C  0.06637575  0.41783492  0.63743411    -0.02900
C308        C  0.09846452  0.45211757  0.63957390    -0.17300
H309        H  0.12123889  0.54682544  0.64221848     0.20700
H310        H  0.95859267  0.49943726  0.63002816     0.19000
H311        H  0.94508035  0.59647901  0.62673399     0.19000
H312        H  0.13492992  0.44884472  0.64097924     0.14800
C313        C  0.87233302  0.86024251  0.51521128     0.30300
C314        C  0.86613254  0.87332470  0.48255199    -0.36100
C315        C  0.84221716  0.91398451  0.47708519     0.16300
C316        C  0.82510092  0.93934941  0.50210352     0.22100
C317        C  0.83107023  0.92625556  0.53448393    -0.34200
C318        C  0.85537835  0.88627476  0.53991429     0.16200
O319        O  0.89712523  0.82599348  0.52629704    -0.26200
C320        C  0.89593263  0.83063769  0.55837872     0.04400
C321        C  0.87048545  0.86747282  0.56809577    -0.31100
O322        O  0.80620941  0.97729790  0.49204298    -0.22900
C323        C  0.81139175  0.97679501  0.46015385    -0.02900
C324        C  0.83345142  0.93818827  0.44928190    -0.17300
H325        H  0.88058266  0.85421869  0.46289353     0.20700
H326        H  0.81918397  0.94692393  0.55420300     0.19000
H327        H  0.86603108  0.88008977  0.59239819     0.19000
H328        H  0.84290223  0.92998216  0.42473730     0.14800
C329        C  0.20886305  0.86949814  0.51368910     0.30300
C330        C  0.19351276  0.86835542  0.54588576    -0.36100
C331        C  0.15553578  0.84100104  0.55191570     0.16300
C332        C  0.13476972  0.81603112  0.52794212     0.22100
C333        C  0.15035003  0.81672521  0.49601519    -0.34200
C334        C  0.18759847  0.84454318  0.48992510     0.16200
O335        O  0.24016319  0.89669123  0.50171589    -0.26200
C336        C  0.23855755  0.88895788  0.46997502     0.06000
C337        C  0.20650433  0.85694857  0.46133576    -0.31100
O338        O  0.09812525  0.79530329  0.53808234    -0.22900
C339        C  0.09498142  0.80700779  0.56899316    -0.02900
C340        C  0.12984957  0.83535624  0.57908249    -0.17300
H341        H  0.20862230  0.88912246  0.56452261     0.20700
H342        H  0.13312270  0.79864135  0.47687789     0.19000
H343        H  0.19640991  0.84680143  0.43721602     0.19000
H344        H  0.13461329  0.85073551  0.60255561     0.14800
C345        C  0.85002814  0.84818712  0.79388990     0.30300
C346        C  0.84673846  0.81594191  0.76918944    -0.36100
C347        C  0.88347840  0.81366521  0.74790447     0.16300
C348        C  0.92106407  0.84100896  0.75085147     0.22100
C349        C  0.92449558  0.87295459  0.77574796    -0.34200
C350        C  0.88759812  0.87554767  0.79685278     0.16200
O351        O  0.81923520  0.85667542  0.81599993    -0.26200
C352        C  0.83711663  0.89013962  0.83324322     0.06000
C353        C  0.87968307  0.90315533  0.82249975    -0.31100
O354        O  0.95054388  0.83458929  0.72745126    -0.22900
C355        C  0.93170195  0.80267254  0.70924442    -0.02900
C356        C  0.88996969  0.78829808  0.72088630    -0.17300
H357        H  0.81722022  0.79467831  0.76641257     0.20700
H358        H  0.95360291  0.89498589  0.77810045     0.19000
H359        H  0.90171648  0.92897881  0.83234949     0.19000
H360        H  0.86710944  0.76385869  0.71034640     0.14800
loop_ 
_geom_bond_atom_site_label_1 
_geom_bond_atom_site_label_2 
_geom_bond_distance 
_geom_bond_site_symmetry_2 
_ccdc_geom_bond_type 
In1           O3   2.246   1_655  S
In1           O4   2.250       .  S
In1          O12   2.249       .  S
In1           O6   2.261       .  S
In1           O8   2.278   1_655  S
In1           O9   2.269       .  S
In1          O10   2.222   1_655  S
In1          O13   2.228       .  S
C2            O8   1.267       .  A
C2           O10   1.257       .  A
C2          C339   1.471       .  S
O3           C11   1.260       .  A
O4           C11   1.263   1_655  A
C5           O12   1.263       .  A
C5            O6   1.266       .  A
C5          C355   1.478       .  S
C7            O9   1.262       .  A
C7           O13   1.259       .  A
C7          C320   1.467       .  S
C11         C304   1.470       .  S
In14         O16   2.246       .  S
In14         O17   2.253       .  S
In14         O25   2.255       .  S
In14         O19   2.264       .  S
In14         O21   2.259   1_565  S
In14         O22   2.255       .  S
In14         O23   2.244       .  S
In14         O26   2.244       .  S
C15          O21   1.260       .  A
C15          O23   1.259   1_545  A
C15         C288   1.468       .  S
O16          C24   1.261       .  A
O17          C24   1.261       .  A
C18          O25   1.258       .  A
C18          O19   1.260       .  A
C18         C352   1.473       .  S
C20          O22   1.258       .  A
C20          O26   1.257       .  A
C20         C272   1.465       .  S
C24         C259   1.469       .  S
In27         O29   2.221   1_455  S
In27         O30   2.275   1_455  S
In27         O38   2.241   1_455  S
In27         O32   2.254       .  S
In27         O34   2.244       .  S
In27         O35   2.248   1_455  S
In27         O36   2.227       .  S
In27         O39   2.244       .  S
C28          O34   1.266       .  A
C28          O36   1.262       .  A
C28         C227   1.466       .  S
O29          C37   1.258       .  A
O30          C37   1.265       .  A
C31          O38   1.259       .  A
C31          O32   1.263   1_655  A
C31         C240   1.468       .  S
C33          O35   1.265   1_455  A
C33          O39   1.261       .  A
C33         C208   1.470       .  S
C37         C291   1.470       .  S
In40         O42   2.246       .  S
In40         O43   2.276       .  S
In40         O51   2.229       .  S
In40         O45   2.250       .  S
In40         O47   2.265       .  S
In40         O48   2.276       .  S
In40         O49   2.220       .  S
In40         O52   2.237       .  S
C41          O47   1.264       .  A
C41          O49   1.258       .  A
C41         C323   1.464   1_545  S
O42          C50   1.255       .  A
O43          C50   1.261       .  A
C44          O51   1.263       .  A
C44          O45   1.264       .  A
C44         C243   1.467       .  S
C46          O48   1.263       .  A
C46          O52   1.258       .  A
C46         C179   1.473       .  S
C50         C192   1.469       .  S
In53         O55   2.243       .  S
In53         O56   2.263       .  S
In53         O64   2.252       .  S
In53         O58   2.273       .  S
In53         O60   2.275       .  S
In53         O61   2.256       .  S
In53         O62   2.228       .  S
In53         O65   2.230       .  S
C54          O60   1.266       .  A
C54          O62   1.258       .  A
C54         C195   1.473   1_455  S
O55          C63   1.259       .  A
O56          C63   1.262       .  A
C57          O64   1.261       .  A
C57          O58   1.265       .  A
C57         C163   1.480       .  S
C59          O61   1.262       .  A
C59          O65   1.258       .  A
C59         C147   1.460       .  S
C63         C307   1.471       .  S
In66         O68   2.247       .  S
In66         O69   2.257       .  S
In66         O77   2.257       .  S
In66         O71   2.270       .  S
In66         O73   2.244       .  S
In66         O74   2.257       .  S
In66         O75   2.259   1_545  S
In66         O78   2.246       .  S
C67          O73   1.260   1_565  A
C67          O75   1.259       .  A
C67         C131   1.468       .  S
O68          C76   1.260       .  A
O69          C76   1.261       .  A
C70          O77   1.259       .  A
C70          O71   1.260       .  A
C70         C160   1.477       .  S
C72          O74   1.259       .  A
C72          O78   1.258       .  A
C72         C224   1.467       .  S
C76         C256   1.468       .  S
In79         O81   2.227       .  S
In79         O82   2.269       .  S
In79         O90   2.245       .  S
In79         O84   2.255       .  S
In79         O86   2.278   1_565  S
In79         O87   2.247       .  S
In79         O88   2.204   1_565  S
In79         O91   2.250   1_565  S
C80          O86   1.267       .  A
C80          O88   1.258       .  A
C80         C144   1.469       .  S
O81          C89   1.258       .  A
O82          C89   1.263       .  A
C83          O90   1.262       .  A
C83          O84   1.266       .  A
C83         C112   1.475       .  S
C85          O87   1.264       .  A
C85          O91   1.262   1_565  A
C85         C176   1.472   1_565  S
C89         C336   1.466       .  S
In92         O94   2.221       .  S
In92         O95   2.282       .  S
In92        O103   2.273       .  S
In92         O97   2.256       .  S
In92         O99   2.257       .  S
In92        O100   2.259       .  S
In92        O101   2.227       .  S
In92        O104   2.235       .  S
C93          O99   1.267   1_655  A
C93         O101   1.262   1_655  A
C93         C275   1.467       .  S
O94         C102   1.255       .  A
O95         C102   1.263       .  A
C96         O103   1.259       .  A
C96          O97   1.260       .  A
C96         C115   1.477       .  S
C98         O100   1.264       .  A
C98         O104   1.260       .  A
C98         C211   1.466       .  S
C102        C128   1.466       .  S
C105        C110   1.381       .  A
C105        C106   1.402       .  A
C105        O111   1.320       .  A
C106        C107   1.402       .  A
C106        H117   1.084       .  S
C107        C116   1.361       .  A
C107        C108   1.380       .  A
C108        C109   1.409       .  A
C108        O114   1.325       .  A
C109        C110   1.409       .  A
C109        H118   1.081       .  S
C110        C113   1.367       .  A
O111        C112   1.330       .  A
C112        C113   1.395       .  A
C113        H119   1.081       .  S
O114        C115   1.335       .  A
C115        C116   1.390       .  A
C116        H120   1.084       .  S
C121        C126   1.381       .  A
C121        C122   1.399       .  A
C121        O127   1.314       .  A
C122        C123   1.398   1_554  A
C122        H133   1.082       .  S
C123        C132   1.358       .  A
C123        C124   1.380       .  A
C124        C125   1.408       .  A
C124        O130   1.321       .  A
C125        C126   1.406   1_556  A
C125        H134   1.081       .  S
C126        C129   1.369       .  A
O127        C128   1.328       .  A
C128        C129   1.393       .  A
C129        H135   1.082       .  S
O130        C131   1.333       .  A
C131        C132   1.388       .  A
C132        H136   1.083       .  S
C137        C142   1.381       .  A
C137        C138   1.407       .  A
C137        O143   1.325       .  A
C138        C139   1.407       .  A
C138        H149   1.082       .  S
C139        C148   1.364       .  A
C139        C140   1.381       .  A
C140        C141   1.397       .  A
C140        O146   1.315       .  A
C141        C142   1.397       .  A
C141        H150   1.082       .  S
C142        C145   1.352       .  A
O143        C144   1.333       .  A
C144        C145   1.388       .  A
C145        H151   1.082       .  S
O146        C147   1.327       .  A
C147        C148   1.391       .  A
C148        H152   1.082       .  S
C153        C158   1.380       .  A
C153        C154   1.408       .  A
C153        O159   1.323       .  A
C154        C155   1.407       .  A
C154        H165   1.084       .  S
C155        C164   1.368       .  A
C155        C156   1.380       .  A
C156        C157   1.406       .  A
C156        O162   1.321       .  A
C157        C158   1.404       .  A
C157        H166   1.082       .  S
C158        C161   1.364       .  A
O159        C160   1.333       .  A
C160        C161   1.392       .  A
C161        H167   1.082       .  S
O162        C163   1.333       .  A
C163        C164   1.394       .  A
C164        H168   1.084       .  S
C169        C174   1.381       .  A
C169        C170   1.401   1_545  A
C169        O175   1.319   1_545  A
C170        C171   1.401   1_565  A
C170        H181   1.083       .  S
C171        C180   1.358       .  A
C171        C172   1.380       .  A
C172        C173   1.408       .  A
C172        O178   1.324       .  A
C173        C174   1.408       .  A
C173        H182   1.082       .  S
C174        C177   1.366       .  A
O175        C176   1.329   1_565  A
C176        C177   1.394       .  A
C177        H183   1.082       .  S
O178        C179   1.333       .  A
C179        C180   1.389       .  A
C180        H184   1.083   1_545  S
C185        C190   1.381       .  A
C185        C186   1.402       .  A
C185        O191   1.318       .  A
C186        C187   1.402       .  A
C186        H197   1.082       .  S
C187        C196   1.359       .  A
C187        C188   1.381       .  A
C188        C189   1.406       .  A
C188        O194   1.323       .  A
C189        C190   1.406       .  A
C189        H198   1.082       .  S
C190        C193   1.366       .  A
O191        C192   1.330       .  A
C192        C193   1.392       .  A
C193        H199   1.082       .  S
O194        C195   1.331       .  A
C195        C196   1.391       .  A
C196        H200   1.083       .  S
C201        C206   1.380       .  A
C201        C202   1.407       .  A
C201        O207   1.321       .  A
C202        C203   1.406       .  A
C202        H213   1.083       .  S
C203        C212   1.367       .  A
C203        C204   1.381       .  A
C204        C205   1.401       .  A
C204        O210   1.316       .  A
C205        C206   1.400       .  A
C205        H214   1.083   1_455  S
C206        C209   1.361   1_455  A
O207        C208   1.333       .  A
C208        C209   1.388   1_455  A
C209        H215   1.082       .  S
O210        C211   1.329       .  A
C211        C212   1.391       .  A
C212        H216   1.082       .  S
C217        C222   1.381       .  A
C217        C218   1.404       .  A
C217        O223   1.319       .  A
C218        C219   1.403       .  A
C218        H229   1.082       .  S
C219        C228   1.363       .  A
C219        C220   1.381       .  A
C220        C221   1.402       .  A
C220        O226   1.317       .  A
C221        C222   1.401       .  A
C221        H230   1.082   1_554  S
C222        C225   1.360   1_554  A
O223        C224   1.330   1_554  A
C224        C225   1.390       .  A
C225        H231   1.082       .  S
O226        C227   1.329       .  A
C227        C228   1.390       .  A
C228        H232   1.082       .  S
C233        C238   1.381       .  A
C233        C234   1.401       .  A
C233        O239   1.318       .  A
C234        C235   1.400       .  A
C234        H245   1.082       .  S
C235        C244   1.358       .  A
C235        C236   1.381       .  A
C236        C237   1.405       .  A
C236        O242   1.321       .  A
C237        C238   1.405       .  A
C237        H246   1.084       .  S
C238        C241   1.364       .  A
O239        C240   1.330       .  A
C240        C241   1.391       .  A
C241        H247   1.084       .  S
O242        C243   1.332       .  A
C243        C244   1.389       .  A
C244        H248   1.082       .  S
C249        C254   1.381   1_545  A
C249        C250   1.403       .  A
C249        O255   1.320       .  A
C250        C251   1.403       .  A
C250        H261   1.083       .  S
C251        C260   1.362       .  A
C251        C252   1.381   1_545  A
C252        C253   1.404       .  A
C252        O258   1.320       .  A
C253        C254   1.404       .  A
C253        H262   1.083       .  S
C254        C257   1.362       .  A
O255        C256   1.330       .  A
C256        C257   1.391   1_545  A
C257        H263   1.083       .  S
O258        C259   1.331       .  A
C259        C260   1.390   1_565  A
C260        H264   1.083       .  S
C265        C270   1.381       .  A
C265        C266   1.404       .  A
C265        O271   1.319       .  A
C266        C267   1.403       .  A
C266        H277   1.083       .  S
C267        C276   1.365       .  A
C267        C268   1.381       .  A
C268        C269   1.402       .  A
C268        O274   1.316       .  A
C269        C270   1.400       .  A
C269        H278   1.083       .  S
C270        C273   1.360   1_554  A
O271        C272   1.330   1_554  A
C272        C273   1.390       .  A
C273        H279   1.083       .  S
O274        C275   1.329       .  A
C275        C276   1.391       .  A
C276        H280   1.083       .  S
C281        C286   1.381       .  A
C281        C282   1.400   1_556  A
C281        O287   1.317       .  A
C282        C283   1.400       .  A
C282        H293   1.082       .  S
C283        C292   1.357       .  A
C283        C284   1.381       .  A
C284        C285   1.407       .  A
C284        O290   1.324       .  A
C285        C286   1.407   1_554  A
C285        H294   1.082       .  S
C286        C289   1.365       .  A
O287        C288   1.329       .  A
C288        C289   1.393       .  A
C289        H295   1.082       .  S
O290        C291   1.332       .  A
C291        C292   1.389       .  A
C292        H296   1.082       .  S
C297        C302   1.380       .  A
C297        C298   1.407       .  A
C297        O303   1.321       .  A
C298        C299   1.406       .  A
C298        H309   1.083       .  S
C299        C308   1.366       .  A
C299        C300   1.381       .  A
C300        C301   1.403   1_455  A
C300        O306   1.318       .  A
C301        C302   1.401   1_655  A
C301        H310   1.083       .  S
C302        C305   1.361   1_455  A
O303        C304   1.332       .  A
C304        C305   1.389   1_455  A
C305        H311   1.083       .  S
O306        C307   1.330       .  A
C307        C308   1.392       .  A
C308        H312   1.083       .  S
C313        C318   1.381       .  A
C313        C314   1.408       .  A
C313        O319   1.323       .  A
C314        C315   1.407       .  A
C314        H325   1.084       .  S
C315        C324   1.368       .  A
C315        C316   1.381       .  A
C316        C317   1.397       .  A
C316        O322   1.313       .  A
C317        C318   1.396       .  A
C317        H326   1.083       .  S
C318        C321   1.355       .  A
O319        C320   1.333       .  A
C320        C321   1.386       .  A
C321        H327   1.083       .  S
O322        C323   1.327       .  A
C323        C324   1.393       .  A
C324        H328   1.083       .  S
C329        C334   1.381       .  A
C329        C330   1.408       .  A
C329        O335   1.323       .  A
C330        C331   1.407       .  A
C330        H341   1.083       .  S
C331        C340   1.369       .  A
C331        C332   1.380       .  A
C332        C333   1.400       .  A
C332        O338   1.315       .  A
C333        C334   1.399       .  A
C333        H342   1.082       .  S
C334        C337   1.358       .  A
O335        C336   1.333       .  A
C336        C337   1.387       .  A
C337        H343   1.082       .  S
O338        C339   1.329       .  A
C339        C340   1.393       .  A
C340        H344   1.082       .  S
C345        C350   1.380       .  A
C345        C346   1.405       .  A
C345        O351   1.321       .  A
C346        C347   1.405       .  A
C346        H357   1.082       .  S
C347        C356   1.365       .  A
C347        C348   1.380       .  A
C348        C349   1.406       .  A
C348        O354   1.322       .  A
C349        C350   1.405       .  A
C349        H358   1.084       .  S
C350        C353   1.365       .  A
O351        C352   1.332       .  A
C352        C353   1.392       .  A
C353        H359   1.084       .  S
O354        C355   1.332       .  A
C355        C356   1.394       .  A
C356        H360   1.082       .  S
