geometry optimzed in LAMMPS
_audit_creation_date              2020-12-01 
_audit_creation_method            'lammps2cif' 
_symmetry_space_group_name_H-M    'P1' 
_symmetry_Int_Tables_number       1 
_symmetry_cell_setting            triclinic 
loop_ 
_symmetry_equiv_pos_as_xyz 
  x,y,z 
_cell_length_a                    45.60289946 
_cell_length_b                    45.45570289700151 
_cell_length_c                    9.927231590218412 
_cell_angle_alpha                 88.39015101656085 
_cell_angle_beta                  95.15939121337198 
_cell_angle_gamma                 131.20485259349482 
loop_ 
_atom_site_label 
_atom_site_type_symbol 
_atom_site_fract_x 
_atom_site_fract_y 
_atom_site_fract_z 
_atom_site_charge 
N1          N  0.51072924  0.20957644  0.74643672    -0.26800
N2          N  0.53291666  0.23298546  0.65133181    -0.34600
C3          C  0.56809801  0.24321822  0.67402414     0.01600
C4          C  0.56832328  0.22535671  0.78843165     0.07600
C5          C  0.53124662  0.20382382  0.83127862    -0.05500
H6          H  0.59339418  0.26642396  0.62303244     0.08300
H7          H  0.52209581  0.19009821  0.92747598     0.09500
Cu8        Cu  0.52352032  0.26518458  0.53771588     0.44200
Cu9        Cu  0.46046877  0.19953860  0.78046910     0.42000
Cu10       Cu  0.47965076  0.29048749  0.72097722     0.43900
N11         N  0.54467352  0.32135836  0.55254356    -0.34200
N12         N  0.53119075  0.33191731  0.63292038    -0.28400
C13         C  0.55995444  0.37009581  0.66994789    -0.04500
C14         C  0.59312828  0.38377995  0.61103568     0.07700
C15         C  0.58206063  0.35226887  0.53590723     0.01500
H16         H  0.55866566  0.38483968  0.74977946     0.09200
H17         H  0.60159606  0.35014884  0.49269473     0.08200
N18         N  0.42804187  0.23986315  0.78501906    -0.35600
N19         N  0.42036853  0.20651205  0.80324222    -0.27800
C20         C  0.38373458  0.17955692  0.83993890    -0.03000
C21         C  0.36770954  0.19686999  0.84599428     0.05600
C22         C  0.39674404  0.23510498  0.81033628     0.03700
H23         H  0.37011817  0.14977641  0.86269591     0.08800
H24         H  0.39523287  0.25785431  0.80139481     0.07600
N25         N  0.03035744  0.09250833  0.19374753    -0.03000
C26         C  0.06983171  0.11454695  0.21817535    -0.00400
C27         C  0.08568846  0.14282656  0.31906380    -0.23200
C28         C  0.05537444  0.13850072  0.36085917    -0.23500
C29         C  0.02177974  0.10763462  0.28406229    -0.00500
H30         H  0.11612587  0.16413808  0.35868586     0.13300
H31         H  0.05790072  0.15718829  0.43526956     0.13400
N32         N  0.35931382  0.93591039  0.02078643    -0.26800
N33         N  0.36260823  0.91515233  0.10565647    -0.34600
C34         C  0.39725830  0.92483624  0.09701514     0.01600
C35         C  0.41665341  0.95283679  0.00108309     0.07600
C36         C  0.39154468  0.95885173  0.95363136    -0.05500
H37         H  0.40540123  0.90900241  0.14345713     0.08300
H38         H  0.39493831  0.97598110  0.86860250     0.09500
Cu39       Cu  0.31532433  0.86623693  0.19285352     0.44200
Cu40       Cu  0.30823774  0.92672533  0.98877676     0.42000
Cu41       Cu  0.21925669  0.83299317  0.10131033     0.43900
N42         N  0.26417742  0.81055877  0.22526848    -0.34200
N43         N  0.22847115  0.79699581  0.18852601    -0.28400
C44         C  0.20232540  0.75942403  0.22495616    -0.04500
C45         C  0.22296255  0.74930704  0.28689608     0.07700
C46         C  0.26190064  0.78247196  0.28567518     0.01500
H47         H  0.17088719  0.74160148  0.21350549     0.09200
H48         H  0.28689314  0.78627377  0.32911780     0.08200
N49         N  0.22263406  0.87875315  0.02966920    -0.35600
N50         N  0.25458602  0.91224563  0.98927234    -0.27800
C51         C  0.24703623  0.93566392  0.95513785    -0.03000
C52         C  0.20839268  0.91621140  0.97475872     0.05600
C53         C  0.19395114  0.88012755  0.02213769     0.03700
H54         H  0.26855445  0.96498107  0.92059450     0.08800
H55         H  0.16488066  0.85657134  0.05112632     0.07600
N56         N  0.01140102  0.04065239  0.03293898    -0.03000
C57         C  0.01755485  0.01706914  0.08883013    -0.00400
C58         C  0.00422616  0.00608514  0.21553042    -0.23200
C59         C  0.99301390  0.02624873  0.24547691    -0.23500
C60         C  0.00385297  0.05206453  0.14289298    -0.00500
H61         H  0.00595340  0.98846240  0.28522224     0.13300
H62         H  0.98825529  0.02952576  0.34688335     0.13400
N63         N  0.80976219  0.50361605  0.49256060    -0.26800
N64         N  0.78929662  0.47415918  0.57409212    -0.34600
C65         C  0.78713309  0.44487257  0.53267481     0.01600
C66         C  0.80653940  0.45573628  0.41786174     0.07600
C67         C  0.82023509  0.49307464  0.39398251    -0.05500
H68         H  0.76828884  0.41582316  0.57205240     0.08300
H69         H  0.83432826  0.51009158  0.30666136     0.09500
Cu70       Cu  0.75103281  0.46707926  0.69607006     0.44200
Cu71       Cu  0.81712994  0.55410526  0.51611401     0.42000
Cu72       Cu  0.73721072  0.53546148  0.67510057     0.43900
N73         N  0.69738735  0.45156590  0.70391654    -0.34200
N74         N  0.69145987  0.47635794  0.69294435    -0.28400
C75         C  0.65272460  0.45606547  0.66874569    -0.04500
C76         C  0.63376374  0.41671647  0.66168511     0.07700
C77         C  0.66289871  0.41499719  0.68488368     0.01500
H78         H  0.63988821  0.46903011  0.64413760     0.09200
H79         H  0.65962855  0.38926452  0.67625875     0.08200
N80         N  0.78828917  0.59071669  0.63729716    -0.35600
N81         N  0.81758759  0.59823521  0.57994122    -0.27800
C82         C  0.84635822  0.63745961  0.57598204    -0.03000
C83         C  0.83439873  0.65533494  0.63282340     0.05600
C84         C  0.79738764  0.62449130  0.67027773     0.03700
H85         H  0.87400724  0.65183698  0.53548676     0.08800
H86         H  0.77855416  0.62621240  0.72128611     0.07600
N87         N  0.98632528  0.02677233  0.90875120    -0.03000
C88         C  0.95386839  0.98758838  0.89277891    -0.00400
C89         C  0.92029659  0.98124984  0.85766671    -0.23200
C90         C  0.93191766  0.01715407  0.83820167    -0.23500
C91         C  0.97239661  0.04411175  0.85427587    -0.00500
H92         H  0.89093801  0.95336838  0.83651493     0.13300
H93         H  0.91261118  0.02207574  0.80274673     0.13400
N94         N  0.49780953  0.96473717  0.90041020    -0.26800
N95         N  0.47202449  0.94529728  0.79384126    -0.34600
C96         C  0.44136277  0.94267910  0.80745455     0.01600
C97         C  0.44782503  0.96090754  0.92925892     0.07600
C98         C  0.48375695  0.97425606  0.98647146    -0.05500
H99         H  0.41391198  0.92376967  0.74422878     0.08300
H100        H  0.49688945  0.98659975  0.08804515     0.09500
Cu101      Cu  0.47056040  0.90819634  0.67253840     0.44200
Cu102      Cu  0.54684913  0.97028487  0.92867921     0.42000
Cu103      Cu  0.53182303  0.88749025  0.78575557     0.43900
N104        N  0.45238922  0.85299780  0.65842732    -0.34200
N105        N  0.47311889  0.84366658  0.70784845    -0.28400
C106        C  0.44877007  0.80418587  0.71395488    -0.04500
C107        C  0.41103452  0.78839949  0.66752367     0.07700
C108        C  0.41483081  0.82035230  0.63314532     0.01500
H109        H  0.45711160  0.78856194  0.76069195     0.09200
H110        H  0.39127334  0.82020938  0.60448645     0.08200
N111        N  0.58703454  0.94140322  0.85082112    -0.35600
N112        N  0.59198395  0.97113510  0.90201743    -0.27800
C113        C  0.63049535  0.00241935  0.92230766    -0.03000
C114        C  0.65124851  0.99224078  0.88265871     0.05600
C115        C  0.62259416  0.95317148  0.83841687     0.03700
H116        H  0.64237124  0.03077016  0.96063759     0.08800
H117        H  0.62716323  0.93507200  0.79482136     0.07600
N118        N  0.97735168  0.09160829  0.69889826    -0.03000
C119        C  0.98361306  0.12289848  0.75003422    -0.00400
C120        C  0.01376894  0.14097292  0.85228471    -0.23200
C121        C  0.02147749  0.11648015  0.87657822    -0.23500
C122        C  0.99518669  0.08355359  0.79179311    -0.00500
H123        H  0.02311763  0.16432124  0.92138418     0.13300
H124        H  0.03762219  0.11866975  0.96695539     0.13400
N125        N  0.95471506  0.09588357  0.47166517    -0.03000
C126        C  0.91621363  0.06996427  0.42420553    -0.00400
C127        C  0.89985907  0.03238334  0.45415895    -0.23200
C128        C  0.92815752  0.03585372  0.53589467    -0.23500
C129        C  0.95970858  0.07561619  0.56060517    -0.00500
H130        H  0.86967744  0.00588753  0.43182860     0.13300
H131        H  0.92339558  0.01181656  0.58524075     0.13400
N132        N  0.64743462  0.24392096  0.01335479    -0.26800
N133        N  0.66387344  0.27964848  0.97572172    -0.34600
C134        C  0.63840260  0.27786198  0.88890474     0.01600
C135        C  0.60401083  0.23934133  0.87198040     0.07600
C136        C  0.61049185  0.21847307  0.95308578    -0.05500
H137        H  0.64409432  0.30305018  0.84477335     0.08300
H138        H  0.59026336  0.18717521  0.96512567     0.09500
Cu139      Cu  0.71832640  0.33059703  0.05287541     0.44200
Cu140      Cu  0.67833077  0.23220138  0.13362442     0.42000
Cu141      Cu  0.77600276  0.31997082  0.27191062     0.43900
N142        N  0.76561568  0.37637895  0.17885935    -0.34200
N143        N  0.78592025  0.37189726  0.26609366    -0.28400
C144        C  0.80761700  0.40252665  0.35630794    -0.04500
C145        C  0.80125300  0.42790658  0.32290625     0.07700
C146        C  0.77427174  0.41014477  0.20992083     0.01500
H147        H  0.82361327  0.40419796  0.44755937     0.09200
H148        H  0.75812638  0.41837540  0.16559140     0.08200
N149        N  0.75798298  0.26419768  0.25836089    -0.35600
N150        N  0.72238100  0.23231254  0.21222446    -0.27800
C151        C  0.72138606  0.20204887  0.20926109    -0.03000
C152        C  0.75819898  0.21531986  0.25497307     0.05600
C153        C  0.78047981  0.25496617  0.28560504     0.03700
H154        H  0.69599460  0.17288686  0.17110711     0.08800
H155        H  0.81129259  0.27614193  0.32009209     0.07600
N156        N  0.19921649  0.66067568  0.40615266    -0.26800
N157        N  0.21828404  0.68434635  0.51481847    -0.34600
C158        C  0.22444502  0.71716296  0.49266456     0.01600
C159        C  0.20862353  0.71457835  0.36373174     0.07600
C160        C  0.19275825  0.67819472  0.31111757    -0.05500
H161        H  0.24444407  0.74347855  0.55701446     0.08300
H162        H  0.18217680  0.66769341  0.20664362     0.09500
Cu163      Cu  0.25212984  0.68158713  0.65619947     0.44200
Cu164      Cu  0.19327247  0.61114954  0.39148842     0.42000
Cu165      Cu  0.27795044  0.62721402  0.57071935     0.43900
N166        N  0.30874154  0.70363958  0.68701761    -0.34200
N167        N  0.32029256  0.68558399  0.64602301    -0.28400
C168        C  0.35975417  0.71232488  0.64382335    -0.04500
C169        C  0.37304763  0.74879310  0.68381460     0.07700
C170        C  0.33976522  0.74175309  0.71053194     0.01500
H171        H  0.37681172  0.70652252  0.60318499     0.09200
H172        H  0.33766695  0.76352121  0.73140579     0.08200
N173        N  0.22438987  0.57203278  0.50209621    -0.35600
N174        N  0.19436899  0.56660387  0.43712275    -0.27800
C175        C  0.16404704  0.52790730  0.41546392    -0.03000
C176        C  0.17506233  0.50754580  0.46915729     0.05600
C177        C  0.21368045  0.53673014  0.52286013     0.03700
H178        H  0.13576229  0.51558996  0.36590611     0.08800
H179        H  0.23235631  0.53265537  0.57709961     0.07600
N180        N  0.98211915  0.12002809  0.37537489    -0.03000
C181        C  0.97950732  0.14447031  0.30461753    -0.00400
C182        C  0.97108275  0.13418923  0.16792201    -0.23200
C183        C  0.97302644  0.10567395  0.15278187    -0.23500
C184        C  0.98570956  0.10198791  0.27824526    -0.00500
H185        H  0.96898488  0.14906187  0.08607074     0.13300
H186        H  0.97299112  0.09491914  0.05759875     0.13400
C187        C  0.99529013  0.18336210  0.35835240    -0.02800
C188        C  0.02188960  0.20140646  0.47539083    -0.08600
C189        C  0.04217210  0.24073609  0.51154228    -0.16300
C190        C  0.03590087  0.26250306  0.43203488     0.25900
C191        C  0.00777523  0.24397456  0.32017743    -0.17900
C192        C  0.98758617  0.20483176  0.28391444    -0.06800
C193        C  0.05962734  0.30424070  0.45894918    -0.13300
C194        C  0.07963355  0.33945147  0.47074369    -0.13000
C195        C  0.10351203  0.38167960  0.47556178     0.25800
C196        C  0.08618586  0.39791537  0.44734659    -0.18400
C197        C  0.10932118  0.43865760  0.44572905    -0.06900
C198        C  0.15037334  0.46411394  0.47267421    -0.03000
C199        C  0.16748833  0.44753086  0.50242840    -0.08300
C200        C  0.14428872  0.40674300  0.50344758    -0.15900
H201        H  0.02846893  0.18577162  0.53514576     0.12200
H202        H  0.06366399  0.25449407  0.59886182     0.11500
H203        H  0.00225893  0.26016398  0.25820639     0.11500
H204        H  0.96673116  0.19178511  0.19498153     0.12000
H205        H  0.05473471  0.37905148  0.42539395     0.12000
H206        H  0.09488529  0.45009455  0.42378575     0.12000
H207        H  0.19889291  0.46598998  0.52287969     0.12200
H208        H  0.15825304  0.39475689  0.52475490     0.11000
C209        C  0.89380602  0.08214715  0.37605970    -0.02800
C210        C  0.90535739  0.11702346  0.43024743    -0.08600
C211        C  0.88430522  0.12873759  0.39279087    -0.16300
C212        C  0.85087158  0.10566613  0.30103369     0.25900
C213        C  0.83893203  0.07078543  0.24537619    -0.17900
C214        C  0.86021464  0.05896773  0.28322339    -0.06800
C215        C  0.82875693  0.11787899  0.26999273    -0.13300
C216        C  0.81353499  0.13189446  0.25852099    -0.13000
C217        C  0.79907465  0.15226310  0.25757219     0.25800
C218        C  0.76091330  0.13414985  0.20381470    -0.18400
C219        C  0.74736653  0.15432755  0.20437848    -0.06900
C220        C  0.77183133  0.19305865  0.25864443    -0.03000
C221        C  0.80997425  0.21070102  0.31383848    -0.08300
C222        C  0.82339942  0.19050418  0.31315639    -0.15900
H223        H  0.93055132  0.13516988  0.50372115     0.12200
H224        H  0.89385707  0.15564223  0.43731865     0.11500
H225        H  0.81304106  0.05258454  0.17421023     0.11500
H226        H  0.85048814  0.03186535  0.24026189     0.12000
H227        H  0.74165161  0.10448800  0.16114136     0.12000
H228        H  0.71787117  0.13958732  0.16092011     0.12000
H229        H  0.82968333  0.24018156  0.35768343     0.12200
H230        H  0.85290502  0.20481802  0.35607065     0.11000
C231        C  0.69446605  0.01826505  0.88018746    -0.02800
C232        C  0.71828203  0.05930677  0.88183922    -0.08600
C233        C  0.75886140  0.08374045  0.87657729    -0.16300
C234        C  0.77633388  0.06759821  0.87048093     0.25900
C235        C  0.75292675  0.02683990  0.87044592    -0.17900
C236        C  0.71235888  0.00236937  0.87485252    -0.06800
C237        C  0.81786426  0.09219369  0.85847442    -0.13300
C238        C  0.85101115  0.10724721  0.84039398    -0.13000
C239        C  0.88542524  0.11424861  0.80881721     0.25800
C240        C  0.92357618  0.15092147  0.82749165    -0.18400
C241        C  0.95594251  0.15485462  0.80145485    -0.06900
C242        C  0.95034978  0.12212430  0.75698563    -0.03000
C243        C  0.91167575  0.08605062  0.73757374    -0.08300
C244        C  0.87988019  0.08224204  0.76187448    -0.15900
H245        H  0.70556750  0.07263095  0.88472657     0.12200
H246        H  0.77650662  0.11515961  0.87600388     0.11500
H247        H  0.76602364  0.01390131  0.86562687     0.11500
H248        H  0.69507042  0.97102679  0.87465734     0.12000
H249        H  0.92836029  0.17609077  0.86448746     0.12000
H250        H  0.98520690  0.18303366  0.81962980     0.12000
H251        H  0.90529064  0.05991439  0.70692242     0.12200
H252        H  0.85071229  0.05368747  0.74704633     0.11000
C253        C  0.95386728  0.95515046  0.88134266    -0.02800
C254        C  0.97233163  0.95434453  0.77736447    -0.08600
C255        C  0.96641240  0.92059734  0.74954529    -0.16300
C256        C  0.94169934  0.88716896  0.82466839     0.25900
C257        C  0.92424088  0.88833039  0.93124990    -0.17900
C258        C  0.93007881  0.92199646  0.95887714    -0.06800
C259        C  0.93106156  0.85056980  0.78506505    -0.13300
C260        C  0.91796837  0.81818981  0.75167879    -0.13000
C261        C  0.89750261  0.77775259  0.71527079     0.25800
C262        C  0.85681013  0.74979503  0.71700276    -0.18400
C263        C  0.83641349  0.71030610  0.68753416    -0.06900
C264        C  0.85631671  0.69783893  0.65569660    -0.03000
C265        C  0.89717497  0.72624164  0.65066540    -0.08300
C266        C  0.91762914  0.76591922  0.68063319    -0.15900
H267        H  0.98998480  0.97926017  0.71423414     0.12200
H268        H  0.97985397  0.92008119  0.66613093     0.11500
H269        H  0.90482258  0.86265238  0.98953684     0.11500
H270        H  0.91500068  0.92178156  0.03772961     0.12000
H271        H  0.84077895  0.75848241  0.74261806     0.12000
H272        H  0.80497922  0.68960790  0.69026634     0.12000
H273        H  0.91347942  0.71777946  0.62675059     0.12200
H274        H  0.94912591  0.78722960  0.67844233     0.11000
C275        C  0.18741907  0.93104346  0.95292951    -0.02800
C276        C  0.20630984  0.96867767  0.90404206    -0.08600
C277        C  0.18643387  0.98248213  0.88445025    -0.16300
C278        C  0.14739651  0.95888030  0.91295521     0.25900
C279        C  0.12841364  0.92153548  0.96155110    -0.17900
C280        C  0.14816123  0.90770150  0.98131838    -0.06800
C281        C  0.12692082  0.97312632  0.89931804    -0.13300
C282        C  0.10720872  0.98197824  0.90383743    -0.13000
C283        C  0.08149908  0.98843019  0.93449093     0.25800
C284        C  0.08428255  0.01872903  0.87804187    -0.18400
C285        C  0.06166544  0.02672682  0.92215508    -0.06900
C286        C  0.03693597  0.00517941  0.02542076    -0.03000
C287        C  0.03272965  0.97333223  0.07472212    -0.08300
C288        C  0.05480184  0.96511969  0.02967503    -0.15900
H289        H  0.23645658  0.98766174  0.88115050     0.12200
H290        H  0.20158883  0.01161275  0.84803813     0.11500
H291        H  0.09830393  0.90313027  0.98529802     0.11500
H292        H  0.13249893  0.87873938  0.01939706     0.12000
H293        H  0.10459713  0.03677121  0.80309596     0.12000
H294        H  0.06447581  0.05050382  0.87901693     0.12000
H295        H  0.01277278  0.95487215  0.14979076     0.12200
H296        H  0.05190091  0.94120598  0.07254279     0.11000
C297        C  0.32846449  0.17895054  0.88425945    -0.02800
C298        C  0.29775981  0.13805962  0.87764443    -0.08600
C299        C  0.26075636  0.12143127  0.91374777    -0.16300
C300        C  0.25413234  0.14546741  0.95748544     0.25900
C301        C  0.28452757  0.18612459  0.96467717    -0.17900
C302        C  0.32139139  0.20277913  0.92811499    -0.06800
C303        C  0.21628204  0.12889975  0.99459831    -0.13300
C304        C  0.18601068  0.11868730  0.02698967    -0.13000
C305        C  0.15243738  0.11174740  0.06688102     0.25800
C306        C  0.13572352  0.12372974  0.98431682    -0.18400
C307        C  0.10656243  0.12205185  0.02984583    -0.06900
C308        C  0.09376707  0.10823096  0.15821928    -0.03000
C309        C  0.10987230  0.09527627  0.23934389    -0.08300
C310        C  0.13898105  0.09684930  0.19357137    -0.15900
H311        H  0.30215313  0.11893581  0.84321136     0.12200
H312        H  0.23736331  0.08991323  0.90740485     0.11500
H313        H  0.27973375  0.20500203  0.99866429     0.11500
H314        H  0.34441178  0.23429661  0.93593898     0.12000
H315        H  0.14626041  0.13574504  0.88683570     0.12000
H316        H  0.09573150  0.13356572  0.96772546     0.12000
H317        H  0.10098648  0.08545381  0.34010450     0.12200
H318        H  0.15208120  0.08799932  0.25907044     0.11000
loop_ 
_geom_bond_atom_site_label_1 
_geom_bond_atom_site_label_2 
_geom_bond_distance 
_geom_bond_site_symmetry_2 
_ccdc_geom_bond_type 
N1            N2   1.321       .  A
N1            C5   1.350       .  A
N1           Cu9   2.080       .  S
N2            C3   1.341       .  A
N2           Cu8   2.060       .  S
C3            C4   1.381       .  A
C3            H6   1.082       .  S
C4            C5   1.387       .  A
C4          C135   1.471       .  S
C5            H7   1.082       .  S
Cu8          N11   2.055       .  S
Cu9          N19   2.083       .  S
Cu10         N12   2.069       .  S
Cu10         N18   2.071       .  S
N11          N12   1.320       .  A
N11          C15   1.338       .  A
N12          C13   1.348       .  A
C13          C14   1.384       .  A
C13          H16   1.082       .  S
C14          C15   1.379       .  A
C14          C76   1.466       .  S
C15          H17   1.082       .  S
N18          N19   1.323       .  A
N18          C22   1.342       .  A
N19          C20   1.346       .  A
C20          C21   1.388       .  A
C20          H23   1.082       .  S
C21          C22   1.385       .  A
C21         C297   1.482       .  S
C22          H24   1.081       .  S
N25          C29   1.372       .  A
N25          C26   1.365       .  A
N25          C60   1.453       .  S
C26          C27   1.377       .  A
C26         C308   1.472       .  S
C27          C28   1.365       .  A
C27          H30   1.082       .  S
C28          C29   1.384       .  A
C28          H31   1.082       .  S
C29         C184   1.484   1_455  S
N32          N33   1.320       .  A
N32          C36   1.345   1_554  A
N32         Cu40   2.072   1_554  S
N33          C34   1.343       .  A
N33         Cu39   2.062       .  S
C34          C35   1.382       .  A
C34          H37   1.082       .  S
C35          C36   1.384   1_554  A
C35          C97   1.464   1_554  S
C36          H38   1.082       .  S
Cu39         N42   2.064       .  S
Cu40         N50   2.074       .  S
Cu41         N43   2.089       .  S
Cu41         N49   2.091       .  S
N42          N43   1.322       .  A
N42          C46   1.339       .  A
N43          C44   1.352       .  A
C44          C45   1.388       .  A
C44          H47   1.082       .  S
C45          C46   1.379       .  A
C45         C159   1.471       .  S
C46          H48   1.082       .  S
N49          N50   1.323   1_554  A
N49          C53   1.345       .  A
N50          C51   1.345       .  A
C51          C52   1.387       .  A
C51          H54   1.081       .  S
C52          C53   1.391   1_556  A
C52         C275   1.490       .  S
C53          H55   1.081       .  S
N56          C60   1.383       .  A
N56          C57   1.368       .  A
N56          N87   1.437   1_454  S
C57          C58   1.380       .  A
C57         C286   1.489       .  S
C58          C59   1.360   1_455  A
C58          H61   1.081   1_545  S
C59          C60   1.385   1_655  A
C59          H62   1.083       .  S
N63          N64   1.322       .  A
N63          C67   1.352       .  A
N63         Cu71   2.106       .  S
N64          C65   1.342       .  A
N64         Cu70   2.057       .  S
C65          C66   1.378       .  A
C65          H68   1.082       .  S
C66          C67   1.391       .  A
C66         C145   1.474       .  S
C67          H69   1.082       .  S
Cu70         N73   2.061       .  S
Cu71         N81   2.107       .  S
Cu72         N74   2.063       .  S
Cu72         N80   2.067       .  S
N73          N74   1.321       .  A
N73          C77   1.339       .  A
N74          C75   1.348       .  A
C75          C76   1.382       .  A
C75          H78   1.082       .  S
C76          C77   1.380       .  A
C77          H79   1.082       .  S
N80          N81   1.323       .  A
N80          C84   1.342       .  A
N81          C82   1.351       .  A
C82          C83   1.393       .  A
C82          H85   1.081       .  S
C83          C84   1.385       .  A
C83         C264   1.491       .  S
C84          H86   1.081       .  S
N87          C91   1.375       .  A
N87          C88   1.374   1_545  A
C88          C89   1.370       .  A
C88         C253   1.482       .  S
C89          C90   1.358   1_565  A
C89          H92   1.082       .  S
C90          C91   1.383       .  A
C90          H93   1.072       .  S
C91         C122   1.509       .  S
N94          N95   1.320       .  A
N94          C98   1.346       .  A
N94        Cu102   2.072       .  S
N95          C96   1.342       .  A
N95        Cu101   2.062       .  S
C96          C97   1.381       .  A
C96          H99   1.082       .  S
C97          C98   1.385       .  A
C98         H100   1.082   1_556  S
Cu101       N104   2.064       .  S
Cu102       N112   2.074       .  S
Cu103       N105   2.103       .  S
Cu103       N111   2.105       .  S
N104        N105   1.322       .  A
N104        C108   1.339       .  A
N105        C106   1.356       .  A
C106        C107   1.392       .  A
C106        H109   1.082       .  S
C107        C108   1.381       .  A
C107        C169   1.481       .  S
C108        H110   1.082       .  S
N111        N112   1.324       .  A
N111        C115   1.349       .  A
N112        C113   1.345   1_565  A
C113        C114   1.385   1_545  A
C113        H116   1.082       .  S
C114        C115   1.392       .  A
C114        C231   1.490   1_565  S
C115        H117   1.082       .  S
N118        C122   1.373       .  A
N118        C119   1.357       .  A
N118        C129   1.465       .  S
C119        C120   1.380   1_655  A
C119        C242   1.502       .  S
C120        C121   1.381       .  A
C120        H123   1.082       .  S
C121        C122   1.382   1_455  A
C121        H124   1.071       .  S
N125        C129   1.369       .  A
N125        C126   1.360       .  A
N125        N180   1.424       .  S
C126        C127   1.377       .  A
C126        C209   1.491       .  S
C127        C128   1.378       .  A
C127        H130   1.082       .  S
C128        C129   1.390       .  A
C128        H131   1.076       .  S
N132        N133   1.323   1_554  A
N132        C136   1.351   1_554  A
N132       Cu140   2.084       .  S
N133        C134   1.341       .  A
N133       Cu139   2.073   1_556  S
C134        C135   1.380       .  A
C134        H137   1.082       .  S
C135        C136   1.385       .  A
C136        H138   1.082       .  S
Cu139       N142   2.072       .  S
Cu140       N150   2.085       .  S
Cu141       N143   2.090       .  S
Cu141       N149   2.092       .  S
N142        N143   1.320       .  A
N142        C146   1.347       .  A
N143        C144   1.347       .  A
C144        C145   1.388       .  A
C144        H147   1.082       .  S
C145        C146   1.385       .  A
C146        H148   1.082       .  S
N149        N150   1.323       .  A
N149        C153   1.346       .  A
N150        C151   1.347       .  A
C151        C152   1.390       .  A
C151        H154   1.081       .  S
C152        C153   1.391       .  A
C152        C220   1.495       .  S
C153        H155   1.081       .  S
N156        N157   1.320       .  A
N156        C160   1.352       .  A
N156       Cu164   2.090       .  S
N157        C158   1.339       .  A
N157       Cu163   2.055       .  S
C158        C159   1.380       .  A
C158        H161   1.082       .  S
C159        C160   1.391       .  A
C160        H162   1.082       .  S
Cu163       N166   2.056       .  S
Cu164       N174   2.094       .  S
Cu165       N167   2.105       .  S
Cu165       N173   2.109       .  S
N166        N167   1.320       .  A
N166        C170   1.339       .  A
N167        C168   1.356       .  A
C168        C169   1.394       .  A
C168        H171   1.082       .  S
C169        C170   1.380       .  A
C170        H172   1.082       .  S
N173        N174   1.325       .  A
N173        C177   1.350       .  A
N174        C175   1.347       .  A
C175        C176   1.389       .  A
C175        H178   1.081       .  S
C176        C177   1.392       .  A
C176        C198   1.497       .  S
C177        H179   1.081       .  S
N180        C184   1.371       .  A
N180        C181   1.363       .  A
C181        C182   1.383       .  A
C181        C187   1.495       .  S
C182        C183   1.369       .  A
C182        H185   1.080       .  S
C183        C184   1.379       .  A
C183        H186   1.075       .  S
C187        C188   1.408   1_655  A
C187        C192   1.409       .  A
C188        C189   1.406       .  A
C188        H201   1.083       .  S
C189        C190   1.404       .  A
C189        H202   1.083       .  S
C190        C191   1.400       .  A
C190        C193   1.454       .  S
C191        C192   1.400   1_455  A
C191        H203   1.083       .  S
C192        H204   1.082       .  S
C193        C194   1.215       .  T
C194        C195   1.454       .  S
C195        C196   1.402       .  A
C195        C200   1.402       .  A
C196        C197   1.404       .  A
C196        H205   1.083       .  S
C197        C198   1.410       .  A
C197        H206   1.082       .  S
C198        C199   1.409       .  A
C199        C200   1.405       .  A
C199        H207   1.082       .  S
C200        H208   1.083       .  S
C209        C210   1.406       .  A
C209        C214   1.407       .  A
C210        C211   1.393       .  A
C210        H223   1.080       .  S
C211        C212   1.397       .  A
C211        H224   1.084       .  S
C212        C213   1.405       .  A
C212        C215   1.446       .  S
C213        C214   1.408       .  A
C213        H225   1.083       .  S
C214        H226   1.083       .  S
C215        C216   1.210       .  T
C216        C217   1.447       .  S
C217        C218   1.400       .  A
C217        C222   1.400       .  A
C218        C219   1.404       .  A
C218        H227   1.083       .  S
C219        C220   1.411       .  A
C219        H228   1.081       .  S
C220        C221   1.409       .  A
C221        C222   1.400       .  A
C221        H229   1.081       .  S
C222        H230   1.084       .  S
C231        C232   1.410       .  A
C231        C236   1.406       .  A
C232        C233   1.403       .  A
C232        H245   1.082       .  S
C233        C234   1.399       .  A
C233        H246   1.083       .  S
C234        C235   1.402       .  A
C234        C237   1.447       .  S
C235        C236   1.401       .  A
C235        H247   1.084       .  S
C236        H248   1.082   1_545  S
C237        C238   1.210       .  T
C238        C239   1.445       .  S
C239        C240   1.407       .  A
C239        C244   1.389       .  A
C240        C241   1.413       .  A
C240        H249   1.082       .  S
C241        C242   1.411       .  A
C241        H250   1.082       .  S
C242        C243   1.408       .  A
C243        C244   1.386       .  A
C243        H251   1.066       .  S
C244        H252   1.085       .  S
C253        C254   1.405       .  A
C253        C258   1.404       .  A
C254        C255   1.403       .  A
C254        H267   1.083       .  S
C255        C256   1.402       .  A
C255        H268   1.083       .  S
C256        C257   1.402       .  A
C256        C259   1.448       .  S
C257        C258   1.401       .  A
C257        H269   1.083       .  S
C258        H270   1.083   1_556  S
C259        C260   1.211       .  T
C260        C261   1.448       .  S
C261        C262   1.399       .  A
C261        C266   1.403       .  A
C262        C263   1.398       .  A
C262        H271   1.084       .  S
C263        C264   1.409       .  A
C263        H272   1.081       .  S
C264        C265   1.409       .  A
C265        C266   1.405       .  A
C265        H273   1.082       .  S
C266        H274   1.083       .  S
C275        C276   1.411       .  A
C275        C280   1.408       .  A
C276        C277   1.401       .  A
C276        H289   1.081       .  S
C277        C278   1.399       .  A
C277        H290   1.084   1_565  S
C278        C279   1.399       .  A
C278        C281   1.442       .  S
C279        C280   1.397       .  A
C279        H291   1.084       .  S
C280        H292   1.081   1_556  S
C281        C282   1.207       .  T
C282        C283   1.441       .  S
C283        C284   1.402   1_565  A
C283        C288   1.396   1_556  A
C284        C285   1.404       .  A
C284        H293   1.083       .  S
C285        C286   1.407   1_556  A
C285        H294   1.081       .  S
C286        C287   1.408   1_545  A
C287        C288   1.392       .  A
C287        H295   1.081       .  S
C288        H296   1.084       .  S
C297        C298   1.408       .  A
C297        C302   1.407       .  A
C298        C299   1.400       .  A
C298        H311   1.082       .  S
C299        C300   1.399       .  A
C299        H312   1.083       .  S
C300        C301   1.399       .  A
C300        C303   1.438       .  S
C301        C302   1.396       .  A
C301        H313   1.084       .  S
C302        H314   1.082       .  S
C303        C304   1.205   1_556  T
C304        C305   1.437       .  S
C305        C306   1.400   1_554  A
C305        C310   1.400       .  A
C306        C307   1.397   1_556  A
C306        H315   1.083       .  S
C307        C308   1.402       .  A
C307        H316   1.080   1_554  S
C308        C309   1.404       .  A
C309        C310   1.398       .  A
C309        H317   1.083       .  S
C310        H318   1.083       .  S
