geometry optimzed in LAMMPS
_audit_creation_date              2020-12-01 
_audit_creation_method            'lammps2cif' 
_symmetry_space_group_name_H-M    'P1' 
_symmetry_Int_Tables_number       1 
_symmetry_cell_setting            triclinic 
loop_ 
_symmetry_equiv_pos_as_xyz 
  x,y,z 
_cell_length_a                    32.22228238 
_cell_length_b                    32.217747214744016 
_cell_length_c                    43.85927625495593 
_cell_angle_alpha                 90.007036350621 
_cell_angle_beta                  89.99854257824295 
_cell_angle_gamma                 89.98703568325836 
loop_ 
_atom_site_label 
_atom_site_type_symbol 
_atom_site_fract_x 
_atom_site_fract_y 
_atom_site_fract_z 
_atom_site_charge 
O1          O  0.92244336  0.92718539  0.65337091    -0.71000
O2          O  0.86571155  0.81732111  0.64646817    -0.71900
O3          O  0.91740869  0.86489375  0.60779417    -0.60500
O4          O  0.86970900  0.87957813  0.69198772    -0.69000
O5          O  0.81448012  0.91065873  0.67196085    -0.68500
O6          O  0.86188039  0.89596892  0.58819724    -0.59800
O7          O  0.81000196  0.84778482  0.62662858    -0.72300
O8          O  0.86738705  0.95877750  0.63352441    -0.71100
Cu9        Cu  0.89576431  0.87125078  0.65064468     1.04600
Cu10       Cu  0.83647073  0.90448438  0.62941830     1.04300
C11         C  0.90422366  0.96007004  0.64427956     0.95200
C12         C  0.82921927  0.81518217  0.63537255     0.94400
C13         C  0.89677588  0.87784969  0.58482013     0.86500
C14         C  0.83432520  0.89698877  0.69503520     0.92800
O15         O  0.04995301  0.14119708  0.63358293    -0.71000
O16         O  0.16098957  0.19849025  0.62674767    -0.71900
O17         O  0.11276851  0.14670248  0.58827097    -0.60500
O18         O  0.09810785  0.19401686  0.67206763    -0.69000
O19         O  0.12912764  0.13872839  0.69206200    -0.68500
O20         O  0.14378491  0.09111330  0.60783133    -0.59800
O21         O  0.19139560  0.14272231  0.64655220    -0.72300
O22         O  0.08148530  0.08607896  0.65339398    -0.71100
Cu23       Cu  0.10427004  0.17207017  0.62950957     1.04600
Cu24       Cu  0.13743965  0.11271201  0.65069836     1.04300
C25         C  0.04862367  0.10434364  0.64431133     0.95200
C26         C  0.19357050  0.17922903  0.63547880     0.94400
C27         C  0.13085787  0.11179215  0.58487034     0.86500
C28         C  0.11174980  0.17412940  0.69513153     0.92800
O29         O  0.16089339  0.24116124  0.90043587    -0.71000
O30         O  0.04978872  0.29834880  0.89358802    -0.71900
O31         O  0.09799976  0.24552208  0.85512568    -0.60500
O32         O  0.11263190  0.29295767  0.93888941    -0.69000
O33         O  0.14357019  0.34854601  0.91928137    -0.68500
O34         O  0.12894130  0.30081314  0.83508938    -0.59800
O35         O  0.08124165  0.35346943  0.87373244    -0.72300
O36         O  0.19122285  0.29692882  0.88058569    -0.71100
Cu37       Cu  0.10414526  0.26752934  0.89766915     1.04600
Cu38       Cu  0.13723129  0.32688861  0.87643208     1.04300
C39         C  0.19344521  0.26043811  0.89168340     0.95200
C40         C  0.04840762  0.33518720  0.88283522     0.94400
C41         C  0.11161542  0.26539068  0.83204662     0.86500
C42         C  0.13068645  0.32788351  0.94226080     0.92800
O43         O  0.81430674  0.52896439  0.85508344    -0.71000
O44         O  0.86165342  0.54363752  0.93886698    -0.71900
O45         O  0.80984635  0.59186368  0.90039566    -0.60500
O46         O  0.86713611  0.48079403  0.89355960    -0.69000
O47         O  0.92223496  0.51230338  0.87372481    -0.68500
O48         O  0.86559646  0.62224920  0.88057137    -0.59800
O49         O  0.91722289  0.57462723  0.91927980    -0.72300
O50         O  0.86957884  0.55996398  0.83507225    -0.71100
Cu51       Cu  0.83626764  0.53513074  0.89763581     1.04600
Cu52       Cu  0.89560639  0.56827612  0.87642348     1.04300
C53         C  0.83418149  0.54260128  0.83201395     0.95200
C54         C  0.89656239  0.56171345  0.94225094     0.94400
C55         C  0.82909422  0.62443746  0.89164785     0.86500
C56         C  0.90397942  0.47944774  0.88281864     0.92800
O57         O  0.52774589  0.29836915  0.63348987    -0.71000
O58         O  0.41673861  0.24101477  0.62666631    -0.71900
O59         O  0.46493664  0.29281059  0.58817750    -0.60500
O60         O  0.47961297  0.24555192  0.67198571    -0.69000
O61         O  0.44856285  0.30084032  0.69196651    -0.68500
O62         O  0.43389560  0.34839425  0.60773665    -0.59800
O63         O  0.38630522  0.29678147  0.64646131    -0.72300
O64         O  0.49618467  0.35348280  0.65329422    -0.71100
Cu65       Cu  0.47344433  0.26746726  0.62942162     1.04600
Cu66       Cu  0.44024464  0.32682241  0.65060202     1.04300
C67         C  0.52905568  0.33522937  0.64421349     0.95200
C68         C  0.38414895  0.26026366  0.63539923     0.94400
C69         C  0.44683746  0.32771537  0.58477680     0.86500
C70         C  0.46595619  0.26545046  0.69504429     0.92800
O71         O  0.65505379  0.51250025  0.65331756    -0.71000
O72         O  0.71170809  0.62241668  0.64650524    -0.71900
O73         O  0.66010207  0.57483032  0.60777755    -0.60500
O74         O  0.70769557  0.56012589  0.69199564    -0.69000
O75         O  0.76297555  0.52910120  0.67199080    -0.68500
O76         O  0.71567691  0.54380674  0.58819976    -0.59800
O77         O  0.76746334  0.59200310  0.62668572    -0.72300
O78         O  0.71016239  0.48096374  0.63349386    -0.71100
Cu79       Cu  0.68169177  0.56845948  0.65063810     1.04600
Cu80       Cu  0.74103796  0.53528317  0.62943446     1.04300
C81         C  0.67331391  0.47963492  0.64422499     0.95200
C82         C  0.74820803  0.62458851  0.63542506     0.94400
C83         C  0.68077760  0.56191303  0.58480974     0.86500
C84         C  0.74308712  0.54273782  0.69505919     0.92800
O85         O  0.76290976  0.91056080  0.85501777    -0.71000
O86         O  0.71544939  0.89581545  0.93875602    -0.71900
O87         O  0.76728620  0.84761585  0.90029337    -0.60500
O88         O  0.71005599  0.95870804  0.89349228    -0.69000
O89         O  0.65496644  0.92724549  0.87359944    -0.68500
O90         O  0.71155590  0.81726587  0.88040614    -0.59800
O91         O  0.65989629  0.86486270  0.91910789    -0.72300
O92         O  0.70765056  0.87960544  0.83494659    -0.71100
Cu93       Cu  0.74089261  0.90435803  0.89755043     1.04600
Cu94       Cu  0.68156942  0.87125637  0.87627337     1.04300
C95         C  0.74305603  0.89696210  0.83192472     0.95200
C96         C  0.68053518  0.87773757  0.94210235     0.94400
C97         C  0.74803604  0.81505486  0.89151881     0.86500
C98         C  0.67322842  0.96008329  0.88272747     0.92800
O99         O  0.41666010  0.19874412  0.90041318    -0.71000
O100        O  0.52768306  0.14139975  0.89354784    -0.71900
O101        O  0.47954153  0.19427621  0.85509203    -0.60500
O102        O  0.46486097  0.14688891  0.93885979    -0.69000
O103        O  0.43384364  0.09133808  0.91925267    -0.68500
O104        O  0.44851907  0.13901931  0.83506312    -0.59800
O105        O  0.49614801  0.08631697  0.87369643    -0.72300
O106        O  0.38625099  0.14301094  0.88056768    -0.71100
Cu107      Cu  0.47337129  0.17229547  0.89763775     1.04600
Cu108      Cu  0.44019883  0.11297457  0.87640533     1.04300
C109        C  0.38408036  0.17950823  0.89166579     0.95200
C110        C  0.52900915  0.10455658  0.88279364     0.94400
C111        C  0.46590199  0.17441145  0.83201558     0.86500
C112        C  0.44676809  0.11198347  0.94223082     0.92800
O113        O  0.36985389  0.37968097  0.33501105    -0.71000
O114        O  0.41754520  0.36492806  0.41919224    -0.71900
O115        O  0.36585848  0.31738484  0.38049303    -0.60500
O116        O  0.42257152  0.42726717  0.37365953    -0.69000
O117        O  0.36750549  0.45882988  0.39352510    -0.68500
O118        O  0.31014620  0.34782888  0.40035296    -0.59800
O119        O  0.36201331  0.39597887  0.43881259    -0.72300
O120        O  0.31461642  0.41073486  0.35505509    -0.71100
Cu121      Cu  0.39590426  0.37132351  0.37634854     1.04600
Cu122      Cu  0.33660391  0.40453014  0.39759630     1.04300
C123        C  0.33446682  0.39708582  0.33197285     0.95200
C124        C  0.39690653  0.37785115  0.44217594     0.94400
C125        C  0.32936856  0.31523455  0.39159344     0.86500
C126        C  0.40434133  0.46013979  0.38277020     0.92800
O127        O  0.59804158  0.69420067  0.35500866    -0.71000
O128        O  0.61278129  0.64691011  0.43880128    -0.71900
O129        O  0.66093487  0.69873772  0.40031304    -0.60500
O130        O  0.54995065  0.64135585  0.39350598    -0.69000
O131        O  0.58151645  0.58625808  0.37368103    -0.68500
O132        O  0.69137954  0.64299143  0.38049541    -0.59800
O133        O  0.64383143  0.59134515  0.41922115    -0.72300
O134        O  0.62909763  0.63892968  0.33500669    -0.71100
Cu135      Cu  0.60424155  0.67226959  0.39756610     1.04600
Cu136      Cu  0.63744959  0.61293373  0.37636262     1.04300
C137        C  0.61168755  0.67431330  0.33194138     0.95200
C138        C  0.63089549  0.61201075  0.44218928     0.94400
C139        C  0.69352661  0.67950323  0.39156919     0.86500
C140        C  0.54864547  0.60450093  0.38277346     0.92800
O141        O  0.99610094  0.58615657  0.15339101    -0.71000
O142        O  0.88614290  0.64273792  0.14651750    -0.71900
O143        O  0.93376845  0.59106533  0.10784360    -0.60500
O144        O  0.94843407  0.63886819  0.19201332    -0.69000
O145        O  0.97939533  0.69412714  0.17194601    -0.68500
O146        O  0.96472862  0.64662247  0.08820675    -0.59800
O147        O  0.91649345  0.69847360  0.12663665    -0.72300
O148        O  0.02757485  0.64124580  0.13350620    -0.71100
Cu149      Cu  0.94012311  0.61275920  0.15068290     1.04600
Cu150      Cu  0.97323152  0.67208457  0.12941385     1.04300
C151        C  0.02894129  0.60441652  0.14427674     0.95200
C152        C  0.88393374  0.67921701  0.13539757     0.94400
C153        C  0.94665833  0.61170164  0.08485314     0.86500
C154        C  0.96578126  0.67428349  0.19503711     0.92800
O155        O  0.20785993  0.37965848  0.19202741    -0.71000
O156        O  0.16015901  0.36493995  0.10784261    -0.71900
O157        O  0.21185254  0.31736508  0.14653041    -0.60500
O158        O  0.15513759  0.42727017  0.15339318    -0.69000
O159        O  0.21019935  0.45881377  0.13353195    -0.68500
O160        O  0.26756253  0.34778827  0.12667628    -0.59800
O161        O  0.21568907  0.39596868  0.08822818    -0.72300
O162        O  0.26309322  0.41069268  0.17198728    -0.71100
Cu163      Cu  0.18180562  0.37131627  0.15068839     1.04600
Cu164      Cu  0.24110266  0.40450088  0.12944600     1.04300
C165        C  0.24324494  0.39705225  0.19506781     0.95200
C166        C  0.18079161  0.37786497  0.08486139     0.94400
C167        C  0.24834387  0.31520137  0.13543183     0.86500
C168        C  0.17336434  0.46013674  0.14428922     0.92800
O169        O  0.41747075  0.07470507  0.10779547    -0.71000
O170        O  0.36979970  0.06004809  0.19199302    -0.71900
O171        O  0.42241465  0.01234860  0.15332323    -0.60500
O172        O  0.36588581  0.12235749  0.14651476    -0.69000
O173        O  0.31011322  0.09203068  0.12667242    -0.68500
O174        O  0.36728543  0.98090573  0.13347338    -0.59800
O175        O  0.31450040  0.02911293  0.17196517    -0.72300
O176        O  0.36187640  0.04377514  0.08819134    -0.71100
Cu177      Cu  0.39584229  0.06835198  0.15064647     1.04600
Cu178      Cu  0.33647541  0.03527343  0.12941639     1.04300
C179        C  0.39679777  0.06182974  0.08481748     0.95200
C180        C  0.33438428  0.04271981  0.19504177     0.94400
C181        C  0.40412484  0.97951572  0.14421587     0.86500
C182        C  0.32939258  0.12458421  0.13542757     0.92800
O183        O  0.59786363  0.74537733  0.17188423    -0.71000
O184        O  0.61246750  0.79266968  0.08807976    -0.71900
O185        O  0.66071913  0.74088294  0.12654736    -0.60500
O186        O  0.54966945  0.79818555  0.13340934    -0.69000
O187        O  0.58119202  0.85330571  0.15321506    -0.68500
O188        O  0.69111249  0.79665589  0.14634523    -0.59800
O189        O  0.64346900  0.84825869  0.10764206    -0.72300
O190        O  0.62887344  0.80067308  0.19186590    -0.71100
Cu191      Cu  0.60399517  0.76730924  0.12932180     1.04600
Cu192      Cu  0.63715241  0.82667144  0.15050451     1.04300
C193        C  0.61151282  0.76527486  0.19494244     0.95200
C194        C  0.63054038  0.82758059  0.08468128     0.94400
C195        C  0.69329431  0.76014332  0.13527556     0.86500
C196        C  0.54833317  0.83504121  0.14414036     0.92800
O197        O  0.97952680  0.74575998  0.35498553    -0.71000
O198        O  0.96487487  0.79310256  0.43877602    -0.71900
O199        O  0.91664927  0.74131756  0.40030319    -0.60500
O200        O  0.02769576  0.79857699  0.39346674    -0.69000
O201        O  0.99617997  0.85369822  0.37364576    -0.68500
O202        O  0.88625694  0.79708845  0.38049078    -0.59800
O203        O  0.93387540  0.84869499  0.41920611    -0.72300
O204        O  0.94852134  0.80105133  0.33498346    -0.66300
Cu205      Cu  0.97337166  0.76772122  0.39754107     1.04600
Cu206      Cu  0.94021858  0.82708280  0.37634276     1.04300
C207        C  0.96588222  0.76564118  0.33191934     0.95200
C208        C  0.94679211  0.82801753  0.44217085     0.94400
C209        C  0.88407486  0.76058338  0.39156591     0.86500
C210        C  0.02903522  0.83542737  0.38273411     0.92800
O211        O  0.16014940  0.07491030  0.41923614    -0.71000
O212        O  0.20780566  0.06023500  0.33502656    -0.71900
O213        O  0.15513000  0.01260261  0.37367064    -0.60500
O214        O  0.21179047  0.12250847  0.38053808    -0.69000
O215        O  0.26753068  0.09208258  0.40036284    -0.68500
O216        O  0.21022065  0.98105294  0.39350245    -0.59800
O217        O  0.26306722  0.02919623  0.35503934    -0.72300
O218        O  0.21571043  0.04387638  0.43881824    -0.71100
Cu219      Cu  0.18177127  0.06855668  0.37637883     1.04600
Cu220      Cu  0.24109992  0.03536714  0.39758955     1.04300
C221        C  0.18080519  0.06197358  0.44220488     0.95200
C222        C  0.24319825  0.04284490  0.33196912     0.94400
C223        C  0.17337864  0.97973288  0.38275995     0.86500
C224        C  0.24828783  0.12467143  0.39162246     0.92800
C225        C  0.06766304  0.85760323  0.38152310    -0.16500
C226        C  0.09727863  0.88049101  0.38101933     0.07500
C227        C  0.12829267  0.91149931  0.38102484     0.09400
C228        C  0.15118796  0.94111052  0.38153808    -0.17400
C229        C  0.31598214  0.03935872  0.22476054    -0.16500
C230        C  0.29902583  0.03800826  0.24926135     0.07500
C231        C  0.27854300  0.03804467  0.27774695     0.09400
C232        C  0.26158989  0.03944864  0.30224784    -0.17400
C233        C  0.42626496  0.94085398  0.14541615    -0.16500
C234        C  0.44912139  0.91120220  0.14590898     0.07500
C235        C  0.48010286  0.88014846  0.14588986     0.09400
C236        C  0.50970558  0.85723182  0.14536710    -0.17400
C237        C  0.26762148  0.27523381  0.13284119    -0.16500
C238        C  0.28139785  0.24048432  0.13174008     0.07500
C239        C  0.29643255  0.19934375  0.13174335     0.09400
C240        C  0.31018006  0.16458333  0.13284647    -0.17400
C241        C  0.73326975  0.74088987  0.13269225    -0.16500
C242        C  0.76802967  0.72714781  0.13161029     0.07500
C243        C  0.80918082  0.71215609  0.13164597     0.09400
C244        C  0.84394458  0.69843209  0.13278025    -0.17400
C245        C  0.96916633  0.69272997  0.22474322    -0.16500
C246        C  0.97056010  0.70972710  0.24923044     0.07500
C247        C  0.97058801  0.73025468  0.27770241     0.09400
C248        C  0.96923617  0.74723596  0.30219707    -0.17400
C249        C  0.15115648  0.49875840  0.14551017    -0.16500
C250        C  0.12824673  0.52836851  0.14601971     0.07500
C251        C  0.09721458  0.55937142  0.14601627     0.09400
C252        C  0.06758341  0.58225138  0.14550154    -0.17400
C253        C  0.73348164  0.69878364  0.39414823    -0.16500
C254        C  0.76822238  0.71255705  0.39524747     0.07500
C255        C  0.80935292  0.72758915  0.39524878     0.09400
C256        C  0.84410117  0.74134352  0.39415001    -0.17400
C257        C  0.60826566  0.69267017  0.30221237    -0.16500
C258        C  0.60685006  0.70957757  0.27769636     0.07500
C259        C  0.60680888  0.73000083  0.24918959     0.09400
C260        C  0.60815756  0.74691161  0.22467300    -0.17400
C261        C  0.26754450  0.16464052  0.39421240    -0.16500
C262        C  0.28130461  0.19939051  0.39530951     0.07500
C263        C  0.29633405  0.24052628  0.39529872     0.09400
C264        C  0.31010007  0.27527267  0.39418718    -0.17400
C265        C  0.26165164  0.40045760  0.22478169    -0.16500
C266        C  0.27861082  0.40185425  0.24927931     0.07500
C267        C  0.29909778  0.40186680  0.27776190     0.09400
C268        C  0.31605797  0.40048682  0.30225960    -0.17400
C269        C  0.51003805  0.58229190  0.38156293    -0.16500
C270        C  0.48043670  0.55938698  0.38105428     0.07500
C271        C  0.44943510  0.52836791  0.38105147     0.09400
C272        C  0.42654325  0.49875474  0.38155728    -0.17400
C273        C  0.44004090  0.09639576  0.97246920    -0.16500
C274        C  0.43304425  0.08574451  0.99830779     0.07500
C275        C  0.42297788  0.07562262  0.02873510     0.09400
C276        C  0.41236437  0.06858383  0.05457607    -0.17400
C277        C  0.66493812  0.87095811  0.97233155    -0.16500
C278        C  0.65430639  0.86390623  0.99816616     0.07500
C279        C  0.64423205  0.85378092  0.02859088     0.09400
C280        C  0.63724249  0.84313920  0.05443228    -0.17400
C281        C  0.56762775  0.08235238  0.88156643    -0.16500
C282        C  0.59722697  0.05943218  0.88104461     0.07500
C283        C  0.62820900  0.02838038  0.88102826     0.09400
C284        C  0.65107134  0.99873402  0.88152425    -0.17400
C285        C  0.66523955  0.56867388  0.55456133    -0.16500
C286        C  0.65465124  0.57570758  0.52871390     0.07500
C287        C  0.64461020  0.58581529  0.49827940     0.09400
C288        C  0.63762590  0.59644955  0.47243495    -0.17400
C289        C  0.44012784  0.34326826  0.55452643    -0.16500
C290        C  0.43314651  0.35390505  0.52868220     0.07500
C291        C  0.42309124  0.36402425  0.49825243     0.09400
C292        C  0.41247922  0.37107193  0.47241239    -0.17400
C293        C  0.46930008  0.19280315  0.80229690    -0.16500
C294        C  0.47069472  0.20973483  0.77778938     0.07500
C295        C  0.47071033  0.23017780  0.74929006     0.09400
C296        C  0.46933867  0.24709484  0.72477624    -0.17400
C297        C  0.65113214  0.44100619  0.64543290    -0.16500
C298        C  0.62825337  0.41138154  0.64593699     0.07500
C299        C  0.59726322  0.38034859  0.64593384     0.09400
C300        C  0.56766678  0.35743554  0.64542511    -0.17400
C301        C  0.80983303  0.66441643  0.89421406    -0.16500
C302        C  0.79606086  0.69916968  0.89528462     0.07500
C303        C  0.78102099  0.74030886  0.89524344     0.09400
C304        C  0.76726358  0.77506415  0.89411472    -0.17400
C305        C  0.91213683  0.56843146  0.97249629    -0.16500
C306        C  0.92277227  0.57541753  0.99834162     0.07500
C307        C  0.93287553  0.58547706  0.02877596     0.09400
C308        C  0.93990397  0.59609857  0.05461875    -0.17400
C309        C  0.81578940  0.53923484  0.80229243    -0.16500
C310        C  0.79884659  0.53788213  0.77778718     0.07500
C311        C  0.77838567  0.53792030  0.74929411     0.09400
C312        C  0.76145436  0.53933020  0.72478634    -0.17400
C313        C  0.23343933  0.24122921  0.89427802    -0.16500
C314        C  0.26820490  0.22750663  0.89538266     0.07500
C315        C  0.30935496  0.21251386  0.89537917     0.09400
C316        C  0.34411137  0.19876847  0.89426831    -0.17400
C317        C  0.16519994  0.37112914  0.05462360    -0.16500
C318        C  0.15455775  0.36413534  0.02878122     0.07500
C319        C  0.14445402  0.35407638  0.99834740     0.09400
C320        C  0.13743002  0.34346418  0.97250219    -0.17400
C321        C  0.92616670  0.44081303  0.88160553    -0.16500
C322        C  0.94907470  0.41120096  0.88109999     0.07500
C323        C  0.98011488  0.38020517  0.88110435     0.09400
C324        C  0.00975523  0.35733638  0.88161650    -0.17400
C325        C  0.23354485  0.19847135  0.63288399    -0.16500
C326        C  0.26829744  0.21221679  0.63176793     0.07500
C327        C  0.30943679  0.22723256  0.63174497     0.09400
C328        C  0.34418576  0.24099224  0.63282725    -0.17400
C329        C  0.16523277  0.06868538  0.47245200    -0.16500
C330        C  0.15462292  0.07564851  0.49830692     0.07500
C331        C  0.14456746  0.08566674  0.52875745     0.09400
C332        C  0.13758060  0.09624571  0.55461620    -0.17400
C333        C  0.10836105  0.19251273  0.72485858    -0.16500
C334        C  0.10695956  0.20947446  0.74935875     0.07500
C335        C  0.10692172  0.22998063  0.77783857     0.09400
C336        C  0.10826654  0.24696172  0.80233295    -0.17400
C337        C  0.80994211  0.77522277  0.63277617    -0.16500
C338        C  0.79618728  0.74046981  0.63168366     0.07500
C339        C  0.78118366  0.69932354  0.63170619     0.09400
C340        C  0.76744678  0.66456548  0.63282718    -0.17400
C341        C  0.94006105  0.84356932  0.47242261    -0.16500
C342        C  0.93306101  0.85415097  0.49827890     0.07500
C343        C  0.92298778  0.86417086  0.52872602     0.09400
C344        C  0.91236343  0.87113528  0.55457756    -0.17400
C345        C  0.81591426  0.90037862  0.72474928    -0.16500
C346        C  0.79894673  0.90176235  0.74924465     0.07500
C347        C  0.77844879  0.90176012  0.77772320     0.09400
C348        C  0.76147901  0.90036949  0.80221699    -0.17400
C349        C  0.92644249  0.99867683  0.64551168    -0.16500
C350        C  0.94935630  0.02827449  0.64602894     0.07500
C351        C  0.98038234  0.05927240  0.64603346     0.09400
C352        C  0.00999966  0.08215903  0.64552608    -0.17400
loop_ 
_geom_bond_atom_site_label_1 
_geom_bond_atom_site_label_2 
_geom_bond_distance 
_geom_bond_site_symmetry_2 
_ccdc_geom_bond_type 
O1           Cu9   2.000       .  S
O1           C11   1.275       .  A
O2           Cu9   1.998       .  S
O2           C12   1.274       .  A
O3           Cu9   2.015       .  S
O3           C13   1.277       .  A
O4           Cu9   2.016       .  S
O4           C14   1.278       .  A
O5          Cu10   2.006       .  S
O5           C14   1.276       .  A
O6          Cu10   2.003       .  S
O6           C13   1.275       .  A
O7          Cu10   2.020       .  S
O7           C12   1.278       .  A
O8          Cu10   2.021       .  S
O8           C11   1.278       .  A
Cu9         Cu10   2.380       .  S
C11         C349   1.436       .  S
C12         C337   1.434       .  S
C13         C344   1.435       .  S
C14         C345   1.436       .  S
O15         Cu23   2.021       .  S
O15          C25   1.278       .  A
O16         Cu23   2.020       .  S
O16          C26   1.278       .  A
O17         Cu23   2.003       .  S
O17          C27   1.275       .  A
O18         Cu23   2.006       .  S
O18          C28   1.276       .  A
O19         Cu24   2.016       .  S
O19          C28   1.278       .  A
O20         Cu24   2.015       .  S
O20          C27   1.277       .  A
O21         Cu24   1.998       .  S
O21          C26   1.274       .  A
O22         Cu24   2.000       .  S
O22          C25   1.275       .  A
Cu23        Cu24   2.380       .  S
C25         C352   1.436       .  S
C26         C325   1.434       .  S
C27         C332   1.435       .  S
C28         C333   1.436       .  S
O29         Cu37   2.020       .  S
O29          C39   1.278       .  A
O30         Cu37   2.021       .  S
O30          C40   1.278       .  A
O31         Cu37   2.006       .  S
O31          C41   1.276       .  A
O32         Cu37   2.004       .  S
O32          C42   1.275       .  A
O33         Cu38   2.015       .  S
O33          C42   1.277       .  A
O34         Cu38   2.016       .  S
O34          C41   1.278       .  A
O35         Cu38   2.000       .  S
O35          C40   1.275       .  A
O36         Cu38   1.998       .  S
O36          C39   1.274       .  A
Cu37        Cu38   2.380       .  S
C39         C313   1.434       .  S
C40         C324   1.436       .  S
C41         C336   1.436       .  S
C42         C320   1.435       .  S
O43         Cu51   2.006       .  S
O43          C53   1.276       .  A
O44         Cu51   2.004       .  S
O44          C54   1.275       .  A
O45         Cu51   2.020       .  S
O45          C55   1.278       .  A
O46         Cu51   2.021       .  S
O46          C56   1.278       .  A
O47         Cu52   2.000       .  S
O47          C56   1.275       .  A
O48         Cu52   1.998       .  S
O48          C55   1.274       .  A
O49         Cu52   2.015       .  S
O49          C54   1.277       .  A
O50         Cu52   2.016       .  S
O50          C53   1.278       .  A
Cu51        Cu52   2.380       .  S
C53         C309   1.436       .  S
C54         C305   1.435       .  S
C55         C301   1.434       .  S
C56         C321   1.436       .  S
O57         Cu65   2.021       .  S
O57          C67   1.278       .  A
O58         Cu65   2.020       .  S
O58          C68   1.278       .  A
O59         Cu65   2.004       .  S
O59          C69   1.275       .  A
O60         Cu65   2.006       .  S
O60          C70   1.276       .  A
O61         Cu66   2.016       .  S
O61          C70   1.278       .  A
O62         Cu66   2.015       .  S
O62          C69   1.277       .  A
O63         Cu66   1.998       .  S
O63          C68   1.274       .  A
O64         Cu66   2.000       .  S
O64          C67   1.275       .  A
Cu65        Cu66   2.380       .  S
C67         C300   1.436       .  S
C68         C328   1.434       .  S
C69         C289   1.435       .  S
C70         C296   1.436       .  S
O71         Cu79   2.000       .  S
O71          C81   1.275       .  A
O72         Cu79   1.998       .  S
O72          C82   1.274       .  A
O73         Cu79   2.015       .  S
O73          C83   1.277       .  A
O74         Cu79   2.016       .  S
O74          C84   1.278       .  A
O75         Cu80   2.006       .  S
O75          C84   1.276       .  A
O76         Cu80   2.004       .  S
O76          C83   1.275       .  A
O77         Cu80   2.020       .  S
O77          C82   1.278       .  A
O78         Cu80   2.021       .  S
O78          C81   1.278       .  A
Cu79        Cu80   2.380       .  S
C81         C297   1.436       .  S
C82         C340   1.434       .  S
C83         C285   1.435       .  S
C84         C312   1.436       .  S
O85         Cu93   2.006       .  S
O85          C95   1.276       .  A
O86         Cu93   2.004       .  S
O86          C96   1.275       .  A
O87         Cu93   2.020       .  S
O87          C97   1.278       .  A
O88         Cu93   2.021       .  S
O88          C98   1.278       .  A
O89         Cu94   2.000       .  S
O89          C98   1.275       .  A
O90         Cu94   1.998       .  S
O90          C97   1.275       .  A
O91         Cu94   2.015       .  S
O91          C96   1.277       .  A
O92         Cu94   2.016       .  S
O92          C95   1.278       .  A
Cu93        Cu94   2.380       .  S
C95         C348   1.436       .  S
C96         C277   1.435       .  S
C97         C304   1.434       .  S
C98         C284   1.436       .  S
O99        Cu107   2.020       .  S
O99         C109   1.278       .  A
O100       Cu107   2.021       .  S
O100        C110   1.278       .  A
O101       Cu107   2.006       .  S
O101        C111   1.276       .  A
O102       Cu107   2.004       .  S
O102        C112   1.275       .  A
O103       Cu108   2.015       .  S
O103        C112   1.277       .  A
O104       Cu108   2.016       .  S
O104        C111   1.278       .  A
O105       Cu108   2.000       .  S
O105        C110   1.275       .  A
O106       Cu108   1.998       .  S
O106        C109   1.274       .  A
Cu107      Cu108   2.380       .  S
C109        C316   1.434       .  S
C110        C281   1.436       .  S
C111        C293   1.436       .  S
C112        C273   1.435       .  S
O113       Cu121   2.016       .  S
O113        C123   1.278       .  A
O114       Cu121   2.015       .  S
O114        C124   1.277       .  A
O115       Cu121   1.998       .  S
O115        C125   1.274       .  A
O116       Cu121   2.000       .  S
O116        C126   1.275       .  A
O117       Cu122   2.021       .  S
O117        C126   1.278       .  A
O118       Cu122   2.020       .  S
O118        C125   1.278       .  A
O119       Cu122   2.004       .  S
O119        C124   1.275       .  A
O120       Cu122   2.006       .  S
O120        C123   1.276       .  A
Cu121      Cu122   2.380       .  S
C123        C268   1.436       .  S
C124        C292   1.435       .  S
C125        C264   1.434       .  S
C126        C272   1.436       .  S
O127       Cu135   2.006       .  S
O127        C137   1.276       .  A
O128       Cu135   2.004       .  S
O128        C138   1.275       .  A
O129       Cu135   2.020       .  S
O129        C139   1.278       .  A
O130       Cu135   2.021       .  S
O130        C140   1.278       .  A
O131       Cu136   2.000       .  S
O131        C140   1.275       .  A
O132       Cu136   1.998       .  S
O132        C139   1.274       .  A
O133       Cu136   2.015       .  S
O133        C138   1.277       .  A
O134       Cu136   2.016       .  S
O134        C137   1.278       .  A
Cu135      Cu136   2.380       .  S
C137        C257   1.436       .  S
C138        C288   1.435       .  S
C139        C253   1.434       .  S
C140        C269   1.436       .  S
O141       Cu149   2.000       .  S
O141        C151   1.275   1_655  A
O142       Cu149   1.998       .  S
O142        C152   1.274       .  A
O143       Cu149   2.015       .  S
O143        C153   1.277       .  A
O144       Cu149   2.016       .  S
O144        C154   1.278       .  A
O145       Cu150   2.006       .  S
O145        C154   1.276       .  A
O146       Cu150   2.004       .  S
O146        C153   1.275       .  A
O147       Cu150   2.020       .  S
O147        C152   1.278       .  A
O148       Cu150   2.021   1_455  S
O148        C151   1.278       .  A
Cu149      Cu150   2.380       .  S
C151        C252   1.436       .  S
C152        C244   1.434       .  S
C153        C308   1.435       .  S
C154        C245   1.436       .  S
O155       Cu163   2.016       .  S
O155        C165   1.278       .  A
O156       Cu163   2.015       .  S
O156        C166   1.277       .  A
O157       Cu163   1.998       .  S
O157        C167   1.274       .  A
O158       Cu163   2.000       .  S
O158        C168   1.275       .  A
O159       Cu164   2.021       .  S
O159        C168   1.278       .  A
O160       Cu164   2.020       .  S
O160        C167   1.278       .  A
O161       Cu164   2.004       .  S
O161        C166   1.275       .  A
O162       Cu164   2.006       .  S
O162        C165   1.276       .  A
Cu163      Cu164   2.380       .  S
C165        C265   1.436       .  S
C166        C317   1.435       .  S
C167        C237   1.434       .  S
C168        C249   1.436       .  S
O169       Cu177   2.015       .  S
O169        C179   1.277       .  A
O170       Cu177   2.016       .  S
O170        C180   1.278       .  A
O171       Cu177   2.000       .  S
O171        C181   1.275   1_545  A
O172       Cu177   1.998       .  S
O172        C182   1.274       .  A
O173       Cu178   2.020       .  S
O173        C182   1.278       .  A
O174       Cu178   2.021   1_565  S
O174        C181   1.278       .  A
O175       Cu178   2.006       .  S
O175        C180   1.276       .  A
O176       Cu178   2.004       .  S
O176        C179   1.275       .  A
Cu177      Cu178   2.380       .  S
C179        C276   1.435       .  S
C180        C229   1.436       .  S
C181        C233   1.436       .  S
C182        C240   1.434       .  S
O183       Cu191   2.006       .  S
O183        C193   1.276       .  A
O184       Cu191   2.004       .  S
O184        C194   1.275       .  A
O185       Cu191   2.020       .  S
O185        C195   1.278       .  A
O186       Cu191   2.021       .  S
O186        C196   1.278       .  A
O187       Cu192   2.000       .  S
O187        C196   1.275       .  A
O188       Cu192   1.998       .  S
O188        C195   1.274       .  A
O189       Cu192   2.015       .  S
O189        C194   1.277       .  A
O190       Cu192   2.016       .  S
O190        C193   1.278       .  A
Cu191      Cu192   2.380       .  S
C193        C260   1.436       .  S
C194        C280   1.435       .  S
C195        C241   1.434       .  S
C196        C236   1.436       .  S
O197       Cu205   2.006       .  S
O197        C207   1.276       .  A
O198       Cu205   2.003       .  S
O198        C208   1.275       .  A
O199       Cu205   2.020       .  S
O199        C209   1.278       .  A
O200       Cu205   2.021   1_455  S
O200        C210   1.278       .  A
O201       Cu206   2.000       .  S
O201        C210   1.275   1_655  A
O202       Cu206   1.998       .  S
O202        C209   1.274       .  A
O203       Cu206   2.015       .  S
O203        C208   1.277       .  A
O204       Cu206   2.016       .  S
O204        C207   1.278       .  A
Cu205      Cu206   2.380       .  S
C207        C248   1.436       .  S
C208        C341   1.435       .  S
C209        C256   1.434       .  S
C210        C225   1.436       .  S
O211       Cu219   2.015       .  S
O211        C221   1.277       .  A
O212       Cu219   2.016       .  S
O212        C222   1.278       .  A
O213       Cu219   2.000       .  S
O213        C223   1.275   1_545  A
O214       Cu219   1.998       .  S
O214        C224   1.274       .  A
O215       Cu220   2.020       .  S
O215        C224   1.278       .  A
O216       Cu220   2.021   1_565  S
O216        C223   1.278       .  A
O217       Cu220   2.006       .  S
O217        C222   1.276       .  A
O218       Cu220   2.003       .  S
O218        C221   1.275       .  A
Cu219      Cu220   2.380       .  S
C221        C329   1.435       .  S
C222        C232   1.436       .  S
C223        C228   1.436       .  S
C224        C261   1.434       .  S
C225        C226   1.206       .  T
C226        C227   1.413       .  S
C227        C228   1.206       .  T
C229        C230   1.206       .  T
C230        C231   1.413       .  S
C231        C232   1.206       .  T
C233        C234   1.206       .  T
C234        C235   1.413       .  S
C235        C236   1.206       .  T
C237        C238   1.205       .  T
C238        C239   1.411       .  S
C239        C240   1.205       .  T
C241        C242   1.205       .  T
C242        C243   1.411       .  S
C243        C244   1.205       .  T
C245        C246   1.206       .  T
C246        C247   1.413       .  S
C247        C248   1.206       .  T
C249        C250   1.206       .  T
C250        C251   1.413       .  S
C251        C252   1.206       .  T
C253        C254   1.205       .  T
C254        C255   1.411       .  S
C255        C256   1.205       .  T
C257        C258   1.206       .  T
C258        C259   1.413       .  S
C259        C260   1.206       .  T
C261        C262   1.205       .  T
C262        C263   1.411       .  S
C263        C264   1.205       .  T
C265        C266   1.206       .  T
C266        C267   1.413       .  S
C267        C268   1.206       .  T
C269        C270   1.206       .  T
C270        C271   1.413       .  S
C271        C272   1.206       .  T
C273        C274   1.205       .  T
C274        C275   1.412   1_556  S
C275        C276   1.205       .  T
C277        C278   1.205       .  T
C278        C279   1.412   1_556  S
C279        C280   1.205       .  T
C281        C282   1.206       .  T
C282        C283   1.413       .  S
C283        C284   1.206   1_545  T
C285        C286   1.205       .  T
C286        C287   1.412       .  S
C287        C288   1.205       .  T
C289        C290   1.205       .  T
C290        C291   1.412       .  S
C291        C292   1.205       .  T
C293        C294   1.206       .  T
C294        C295   1.413       .  S
C295        C296   1.206       .  T
C297        C298   1.206       .  T
C298        C299   1.413       .  S
C299        C300   1.206       .  T
C301        C302   1.205       .  T
C302        C303   1.411       .  S
C303        C304   1.205       .  T
C305        C306   1.205       .  T
C306        C307   1.412   1_556  S
C307        C308   1.205       .  T
C309        C310   1.206       .  T
C310        C311   1.413       .  S
C311        C312   1.206       .  T
C313        C314   1.205       .  T
C314        C315   1.411       .  S
C315        C316   1.205       .  T
C317        C318   1.205       .  T
C318        C319   1.412   1_554  S
C319        C320   1.205       .  T
C321        C322   1.206       .  T
C322        C323   1.413       .  S
C323        C324   1.206   1_655  T
C325        C326   1.205       .  T
C326        C327   1.411       .  S
C327        C328   1.205       .  T
C329        C330   1.205       .  T
C330        C331   1.412       .  S
C331        C332   1.205       .  T
C333        C334   1.206       .  T
C334        C335   1.413       .  S
C335        C336   1.206       .  T
C337        C338   1.205       .  T
C338        C339   1.411       .  S
C339        C340   1.205       .  T
C341        C342   1.205       .  T
C342        C343   1.412       .  S
C343        C344   1.205       .  T
C345        C346   1.206       .  T
C346        C347   1.413       .  S
C347        C348   1.206       .  T
C349        C350   1.206   1_565  T
C350        C351   1.413       .  S
C351        C352   1.206   1_655  T
