geometry optimzed in LAMMPS
_audit_creation_date              2020-12-01 
_audit_creation_method            'lammps2cif' 
_symmetry_space_group_name_H-M    'P1' 
_symmetry_Int_Tables_number       1 
_symmetry_cell_setting            triclinic 
loop_ 
_symmetry_equiv_pos_as_xyz 
  x,y,z 
_cell_length_a                    36.42475801 
_cell_length_b                    36.20042669133986 
_cell_length_c                    34.42303121316442 
_cell_angle_alpha                 89.98627604369268 
_cell_angle_beta                  89.98339510770295 
_cell_angle_gamma                 90.00196732711463 
loop_ 
_atom_site_label 
_atom_site_type_symbol 
_atom_site_fract_x 
_atom_site_fract_y 
_atom_site_fract_z 
_atom_site_charge 
O1          O  0.84735892  0.42318337  0.58448594    -0.54300
C2          C  0.88211736  0.37011915  0.68001263     0.78300
O3          O  0.81673242  0.46748401  0.70499695    -0.55500
C4          C  0.82378277  0.44660318  0.57361438     0.78300
C5          C  0.75906171  0.38056482  0.66093151     0.80700
Cd6        Cd  0.82686925  0.42105177  0.65287850     1.37500
O7          O  0.88235117  0.38200352  0.64547918    -0.54300
O8          O  0.78612363  0.36790311  0.64224744    -0.53100
C9          C  0.84537976  0.48589310  0.69757081     0.80600
O10         O  0.76276373  0.41222849  0.67593377    -0.55500
O11         O  0.85636974  0.38109933  0.70172222    -0.53900
O12         O  0.80143909  0.45810503  0.59894731    -0.53900
O13         O  0.86500546  0.47481188  0.66968281    -0.53100
O14         O  0.62626261  0.13162380  0.64374895    -0.54300
C15         C  0.56037716  0.19042418  0.57331803     0.78300
O16         O  0.53962389  0.19696042  0.70375829    -0.55500
C17         C  0.63572179  0.12961411  0.67901692     0.78300
C18         C  0.62835165  0.25382219  0.66097789     0.80700
Cd19       Cd  0.58651377  0.18658231  0.65233517     1.37500
O20         O  0.58450792  0.16731775  0.58354484    -0.54300
O21         O  0.63956786  0.22695191  0.64085245    -0.53100
C22         C  0.52206181  0.16755770  0.69676574     0.80600
O23         O  0.59744169  0.25026006  0.67729363    -0.55500
O24         O  0.54824709  0.21191017  0.59924890    -0.53900
O25         O  0.62328720  0.15406014  0.70165523    -0.53900
O26         O  0.53373452  0.14757740  0.66935542    -0.53100
O27         O  0.62632622  0.82269003  0.31991807    -0.54300
C28         C  0.55988569  0.76423530  0.39013172     0.78300
O29         O  0.53985562  0.75767278  0.25930820    -0.55500
C30         C  0.63545421  0.82495801  0.28456098     0.78300
C31         C  0.62820688  0.70084810  0.30273862     0.80700
Cd32       Cd  0.58624509  0.76799352  0.31120159     1.37500
O33         O  0.58365136  0.78769445  0.37981716    -0.54300
O34         O  0.63960188  0.72797878  0.32235378    -0.53100
C35         C  0.52202773  0.78688833  0.26641616     0.80600
O36         O  0.59707336  0.70411858  0.28685861    -0.55500
O37         O  0.54820156  0.74238105  0.36431994    -0.53900
O38         O  0.62268695  0.80077120  0.26183064    -0.53900
O39         O  0.53329745  0.80670252  0.29414115    -0.53100
O40         O  0.84668425  0.53216745  0.37943643    -0.54300
C41         C  0.88196829  0.58452957  0.28381417     0.78300
O42         O  0.81667937  0.48735268  0.25854252    -0.55500
C43         C  0.82353129  0.50829262  0.39024424     0.78300
C44         C  0.75881916  0.57401653  0.30294254     0.80700
Cd45       Cd  0.82666118  0.53362019  0.31089437     1.37500
O46         O  0.88271127  0.57184165  0.31802021    -0.54300
O47         O  0.78592615  0.58675276  0.32148080    -0.53100
C48         C  0.84530889  0.46892540  0.26597546     0.80600
O49         O  0.76247745  0.54229320  0.28806012    -0.55500
O50         O  0.85566457  0.57438727  0.26241554    -0.53900
O51         O  0.80160057  0.49622963  0.36480670    -0.53900
O52         O  0.86483808  0.47991526  0.29396494    -0.53100
O53         O  0.47413567  0.78701838  0.58370450    -0.54300
C54         C  0.42351750  0.82503799  0.67951867     0.78300
O55         O  0.46093783  0.70444663  0.67796202    -0.55500
C56         C  0.49844871  0.76408435  0.57352586     0.78300
C57         C  0.53714421  0.78685827  0.69624818     0.80700
Cd58       Cd  0.47234107  0.76789115  0.65250651     1.37500
O59         O  0.43211630  0.82248580  0.64403998    -0.54300
O60         O  0.52507323  0.80700902  0.66916232    -0.53100
C61         C  0.43024981  0.70082146  0.66121804     0.80600
O62         O  0.51982255  0.75728982  0.70320859    -0.55500
O63         O  0.43663536  0.80103754  0.70225949    -0.53900
O64         O  0.51076821  0.74275028  0.59949837    -0.53900
O65         O  0.41936076  0.72756075  0.64070707    -0.53100
O66         O  0.21139622  0.53129668  0.58459882    -0.54300
C67         C  0.17702794  0.58422731  0.68051642     0.78300
O68         O  0.24255021  0.48628684  0.70447956    -0.55500
C69         C  0.23493399  0.50788209  0.57362500     0.78300
C70         C  0.29953159  0.57399018  0.66079834     0.80700
Cd71       Cd  0.23193800  0.53320278  0.65293836     1.37500
O72         O  0.17657143  0.57243035  0.64595480    -0.54300
O73         O  0.27241204  0.58649814  0.64210931    -0.53100
C74         C  0.21355065  0.46825755  0.69758981     0.80600
O75         O  0.29599077  0.54232744  0.67586723    -0.55500
O76         O  0.20280244  0.57304866  0.70206924    -0.53900
O77         O  0.25724377  0.49621954  0.59890072    -0.53900
O78         O  0.19349104  0.47976596  0.67024457    -0.53100
O79         O  0.21195299  0.42286551  0.37936808    -0.54300
C80         C  0.17718557  0.37021874  0.28318605     0.78300
O81         O  0.24320239  0.46857606  0.25986388    -0.55500
C82         C  0.23500003  0.44687302  0.39007747     0.78300
C83         C  0.29974199  0.38063431  0.30309883     0.80700
Cd84       Cd  0.23206477  0.42126712  0.31085586     1.37500
O85         O  0.17621799  0.38266831  0.31747906    -0.54300
O86         O  0.27302262  0.36855086  0.32274336    -0.53100
C87         C  0.21378089  0.48612488  0.26609943     0.80600
O88         O  0.29575514  0.41179575  0.28703874    -0.55500
O89         O  0.20348704  0.38070921  0.26194986    -0.53900
O90         O  0.25685211  0.45899714  0.36458259    -0.53900
O91         O  0.19324415  0.47416732  0.29284104    -0.53100
O92         O  0.47440690  0.16763893  0.37986106    -0.54300
C93         C  0.42348930  0.12975553  0.28406315     0.78300
O94         O  0.46136479  0.25044242  0.28601627    -0.55500
C95         C  0.49876608  0.19054484  0.38998228     0.78300
C96         C  0.53717176  0.16786521  0.26705770     0.80700
Cd97       Cd  0.47249111  0.18680303  0.31104048     1.37500
O98         O  0.43224071  0.13219040  0.31950600    -0.54300
O99         O  0.52531243  0.14782483  0.29434592    -0.53100
C100        C  0.43053611  0.25395923  0.30251183     0.80600
O101        O  0.51967696  0.19730026  0.25998065    -0.55500
O102        O  0.43655990  0.15380514  0.26133927    -0.53900
O103        O  0.51103769  0.21188351  0.36398183    -0.53900
O104        O  0.41945390  0.22707721  0.32270662    -0.53100
O105        O  0.71166208  0.92285235  0.87913985    -0.54300
C106        C  0.67708667  0.87028318  0.78297108     0.78300
O107        O  0.74300742  0.96836946  0.75950952    -0.55500
C108        C  0.73480143  0.94672077  0.88996836     0.78300
C109        C  0.79972196  0.88054115  0.80287673     0.80700
Cd110      Cd  0.73203377  0.92121183  0.81070317     1.37500
O111        O  0.67651420  0.88214999  0.81750334    -0.54300
O112        O  0.77279448  0.86821086  0.82202161    -0.53100
C113        C  0.71372488  0.98608396  0.76596107     0.80600
O114        O  0.79594834  0.91197013  0.78734608    -0.55500
O115        O  0.70302163  0.88130470  0.76152831    -0.53900
O116        O  0.75680908  0.95875052  0.86457428    -0.53900
O117        O  0.69335559  0.97430593  0.79293507    -0.53100
O118        O  0.97432455  0.66759880  0.88003792    -0.54300
C119        C  0.92359203  0.62955540  0.78415291     0.78300
O120        O  0.96124067  0.75019039  0.78593810    -0.55500
C121        C  0.99873919  0.69046448  0.89011249     0.78300
C122        C  0.03720705  0.66770975  0.76730536     0.80700
Cd123      Cd  0.97247454  0.68664837  0.81118506     1.37500
O124        O  0.93222289  0.63204383  0.81962470    -0.54300
O125        O  0.02529163  0.64762991  0.79453614    -0.53100
C126        C  0.93045764  0.75376655  0.80251469     0.80600
O127        O  0.01974719  0.69717112  0.76025379    -0.55500
O128        O  0.93673047  0.65356875  0.76143315    -0.53900
O129        O  0.01106123  0.71173059  0.86407305    -0.53900
O130        O  0.91944513  0.72696104  0.82286543    -0.53100
O131        O  0.71125543  0.03115674  0.08446726    -0.54300
C132        C  0.67692039  0.08419770  0.18029892     0.78300
O133        O  0.74243406  0.98660081  0.20455347    -0.55500
C134        C  0.73492056  0.00788649  0.07345897     0.78300
C135        C  0.79948517  0.07413159  0.16056366     0.80700
Cd136      Cd  0.73192871  0.03326766  0.15274653     1.37500
O137        O  0.67648080  0.07238377  0.14574250    -0.54300
O138        O  0.77226568  0.08671509  0.14209044    -0.53100
C139        C  0.71358624  0.96838577  0.19749720     0.80600
O140        O  0.79605489  0.04237006  0.17543114    -0.55500
O141        O  0.70271994  0.07307874  0.20185142    -0.53900
O142        O  0.75739013  0.99642560  0.09867936    -0.53900
O143        O  0.69368714  0.97965619  0.16991466    -0.53100
O144        O  0.93236872  0.32264077  0.14415203    -0.54300
C145        C  0.99873955  0.26419724  0.07377864     0.78300
O146        O  0.01961980  0.25742606  0.20375737    -0.55500
C147        C  0.92359418  0.32513814  0.17958645     0.78300
C148        C  0.93036830  0.20083209  0.16113507     0.80700
Cd149      Cd  0.97245336  0.26794613  0.15269560     1.37500
O150        O  0.97438789  0.28711216  0.08390463    -0.54300
O151        O  0.91945575  0.22766844  0.14077901    -0.53100
C152        C  0.03717376  0.28681795  0.19662269     0.80600
O153        O  0.96108763  0.20437012  0.17783654    -0.55500
O154        O  0.01101794  0.24286545  0.09977506    -0.53900
O155        O  0.93655413  0.30106373  0.20234336    -0.53900
O156        O  0.02535045  0.30684109  0.16931210    -0.53100
O157        O  0.34669011  0.03217040  0.87945018    -0.54300
C158        C  0.38187497  0.08456609  0.78358910     0.78300
O159        O  0.31649874  0.98689201  0.75902184    -0.55500
C160        C  0.32358490  0.00822958  0.89021223     0.78300
C161        C  0.25889898  0.07389296  0.80281933     0.80700
Cd162      Cd  0.32675014  0.03356552  0.81087343     1.37500
O163        O  0.38274493  0.07189395  0.81779825    -0.54300
O164        O  0.28578135  0.08643726  0.82186426    -0.53100
C165        C  0.34542231  0.96880954  0.76610348     0.80600
O166        O  0.26279108  0.04239469  0.78748398    -0.55500
O167        O  0.35552518  0.07436971  0.76228448    -0.53900
O168        O  0.30174638  0.99608844  0.86472932    -0.53900
O169        O  0.36525464  0.98017312  0.79368847    -0.53100
O170        O  0.12648250  0.32242932  0.81987531    -0.54300
C171        C  0.06019999  0.26402483  0.89038715     0.78300
O172        O  0.03942719  0.25725919  0.76005026    -0.55500
C173        C  0.13555881  0.32463176  0.78449997     0.78300
C174        C  0.12820503  0.20056923  0.80267895     0.80700
Cd175      Cd  0.08634299  0.26774585  0.81136974     1.37500
O176        O  0.08418386  0.28725304  0.88006358    -0.54300
O177        O  0.13947818  0.22749253  0.82268240    -0.53100
C178        C  0.02193546  0.28672950  0.76693218     0.80600
O179        O  0.09722622  0.20405392  0.78651472    -0.55500
O180        O  0.04821246  0.24236538  0.86454983    -0.53900
O181        O  0.12273655  0.30041355  0.76184030    -0.53900
O182        O  0.03362499  0.30676670  0.79428434    -0.53100
O183        O  0.08450433  0.66718016  0.08364336    -0.54300
C184        C  0.13584279  0.62963576  0.17912789     0.78300
O185        O  0.09752602  0.75014867  0.17735445    -0.55500
C186        C  0.06040816  0.69031894  0.07340984     0.78300
C187        C  0.02220895  0.66746044  0.19702746     0.80700
Cd188      Cd  0.08655795  0.68648991  0.15242423     1.37500
O189        O  0.12626165  0.63151202  0.14388748    -0.54300
O190        O  0.03403374  0.64729212  0.16984324    -0.53100
C191        C  0.12844433  0.75367514  0.16104807     0.80600
O192        O  0.03956375  0.69705332  0.20370333    -0.55500
O193        O  0.12349495  0.65416674  0.20171825    -0.53900
O194        O  0.04830620  0.71182531  0.09933460    -0.53900
O195        O  0.13964970  0.72678825  0.14093992    -0.53100
O196        O  0.34719621  0.92335603  0.08448296    -0.54300
C197        C  0.38212322  0.87019895  0.17968018     0.78300
O198        O  0.31677573  0.96736443  0.20528399    -0.55500
C199        C  0.32352818  0.94668131  0.07361579     0.78300
C200        C  0.25903936  0.88054989  0.16088916     0.80700
Cd201      Cd  0.32676802  0.92115481  0.15286802     1.37500
O202        O  0.38236502  0.88233614  0.14524538    -0.54300
O203        O  0.28619202  0.86786041  0.14237580    -0.53100
C204        C  0.34525020  0.98597759  0.19767544     0.80600
O205        O  0.26261241  0.91229821  0.17572966    -0.55500
O206        O  0.35632206  0.88094944  0.20144796    -0.53900
O207        O  0.30114540  0.95810235  0.09895170    -0.53900
O208        O  0.36472405  0.97509300  0.16958461    -0.53100
C209        C  0.15038939  0.78643739  0.16516854    -0.15000
C210        C  0.17176727  0.81185585  0.16682922     0.09100
C211        C  0.19979267  0.83888354  0.16669503     0.10900
C212        C  0.22585680  0.85939409  0.16488403    -0.15900
C213        C  0.32229425  0.95979621  0.03426580    -0.15000
C214        C  0.32179814  0.97097621  0.00127177     0.09100
C215        C  0.32183132  0.98410884  0.96262326     0.10900
C216        C  0.32236427  0.99523193  0.92960790    -0.15900
C217        C  0.15014263  0.16781346  0.79851549    -0.15000
C218        C  0.17152873  0.14240859  0.79682073     0.09100
C219        C  0.19957649  0.11541364  0.79693778     0.10900
C220        C  0.22567135  0.09495194  0.79876806    -0.15900
C221        C  0.01195432  0.26261946  0.03448147    -0.15000
C222        C  0.02303777  0.26191606  0.00146200     0.09100
C223        C  0.03601090  0.26185626  0.96275391     0.10900
C224        C  0.04705757  0.26248007  0.92971744    -0.15900
C225        C  0.83259507  0.09540314  0.16449099    -0.15000
C226        C  0.85866903  0.11589482  0.16633083     0.09100
C227        C  0.88679800  0.14281121  0.16659496     0.10900
C228        C  0.90830156  0.16813184  0.16509368    -0.15900
C229        C  0.01199870  0.69204009  0.92939122    -0.15000
C230        C  0.02314799  0.69269430  0.96238396     0.09100
C231        C  0.03619108  0.69265313  0.00106390     0.10900
C232        C  0.04726740  0.69193931  0.03408419    -0.15900
C233        C  0.73591344  0.95972513  0.92935009    -0.15000
C234        C  0.73643492  0.97079379  0.96237538     0.09100
C235        C  0.73650872  0.98381462  0.00105133     0.10900
C236        C  0.73606773  0.99488658  0.03407680    -0.15900
C237        C  0.90844456  0.78648679  0.79843882    -0.15000
C238        C  0.88700405  0.81185492  0.79685818     0.09100
C239        C  0.85893313  0.83883004  0.79707404     0.10900
C240        C  0.83286780  0.85933204  0.79891351    -0.15900
C241        C  0.56885678  0.15701386  0.24494836    -0.15000
C242        C  0.59487243  0.14455396  0.22765558     0.09100
C243        C  0.62444314  0.12643471  0.20909412     0.10900
C244        C  0.64883315  0.10835505  0.19492396    -0.15900
C245        C  0.40063286  0.10037409  0.26983364    -0.15000
C246        C  0.38380705  0.07492529  0.25587060     0.09100
C247        C  0.36709128  0.04439249  0.23736927     0.10900
C248        C  0.35555282  0.01788092  0.21999313    -0.15900
C249        C  0.15877735  0.60032366  0.19334097    -0.15000
C250        C  0.17559565  0.57494412  0.20744128     0.09100
C251        C  0.19221705  0.54450125  0.22618322     0.10900
C252        C  0.20363166  0.51803894  0.24372910    -0.15900
C253        C  0.14910705  0.34609100  0.26848656    -0.15000
C254        C  0.12465716  0.32807752  0.25434554     0.09100
C255        C  0.09498506  0.31004139  0.23588115     0.10900
C256        C  0.06890065  0.29763281  0.21867399    -0.15900
C257        C  0.33289219  0.35944123  0.29915051    -0.15000
C258        C  0.35898254  0.33897936  0.29728824     0.09100
C259        C  0.38708868  0.31205043  0.29700853     0.10900
C260        C  0.40854452  0.28669618  0.29851847    -0.15900
C261        C  0.15846830  0.35395826  0.77023670    -0.15000
C262        C  0.17526861  0.37935710  0.75612773     0.09100
C263        C  0.19188826  0.40983190  0.73741226     0.10900
C264        C  0.20332940  0.43631904  0.71990916    -0.15900
C265        C  0.14896765  0.60840801  0.69515218    -0.15000
C266        C  0.12456434  0.62645552  0.70933890     0.09100
C267        C  0.09495992  0.64449182  0.72792590     0.10900
C268        C  0.06891854  0.65688480  0.74522651    -0.15900
C269        C  0.23613344  0.49496044  0.53421525    -0.15000
C270        C  0.23665320  0.48395768  0.50116491     0.09100
C271        C  0.23666514  0.47099040  0.46246804     0.10900
C272        C  0.23616769  0.45992549  0.42944045    -0.15900
C273        C  0.40077332  0.85449139  0.69376453    -0.15000
C274        C  0.38402695  0.87997227  0.70776181     0.09100
C275        C  0.36735763  0.91048903  0.72632690     0.10900
C276        C  0.35580361  0.93695642  0.74375961    -0.15900
C277        C  0.64898220  0.84619841  0.76825185    -0.15000
C278        C  0.62454793  0.82820308  0.75405521     0.09100
C279        C  0.59492295  0.81016255  0.73551170     0.10900
C280        C  0.56887325  0.79772738  0.71826658    -0.15900
C281        C  0.40820489  0.66811988  0.66527857    -0.15000
C282        C  0.38675035  0.64276147  0.66682886     0.09100
C283        C  0.35868490  0.61578086  0.66658936     0.10900
C284        C  0.33264244  0.59525113  0.66475009    -0.15900
C285        C  0.99066999  0.65662943  0.21940067    -0.15000
C286        C  0.96464792  0.64428823  0.23679196     0.09100
C287        C  0.93490829  0.62639122  0.25531632     0.10900
C288        C  0.91029907  0.60851490  0.26936750    -0.15900
C289        C  0.90082913  0.35461040  0.19376638    -0.15000
C290        C  0.88404684  0.38010769  0.20769058     0.09100
C291        C  0.86731712  0.41063886  0.22617880     0.10900
C292        C  0.85571420  0.43710405  0.24358527    -0.15900
C293        C  0.70333601  0.93652093  0.21990926    -0.15000
C294        C  0.69185166  0.91010348  0.23749184     0.09100
C295        C  0.67518866  0.87969365  0.25627198     0.10900
C296        C  0.65836802  0.85431313  0.27038403    -0.15900
C297        C  0.49059874  0.79772730  0.24390585    -0.15000
C298        C  0.46466478  0.81013353  0.22644286     0.09100
C299        C  0.43501061  0.82814659  0.20792014     0.10900
C300        C  0.41044552  0.84612511  0.19395113    -0.15900
C301        C  0.54667064  0.76262830  0.42943129    -0.15000
C302        C  0.53559992  0.76191610  0.46245660     0.09100
C303        C  0.52263809  0.76186617  0.50116804     0.10900
C304        C  0.51159197  0.76250954  0.53420269    -0.15900
C305        C  0.65016718  0.66809035  0.29869103    -0.15000
C306        C  0.67153329  0.64266317  0.29704305     0.09100
C307        C  0.69953770  0.61561746  0.29716098     0.10900
C308        C  0.72560127  0.59510950  0.29895651    -0.15900
C309        C  0.49047175  0.15671826  0.71905045    -0.15000
C310        C  0.46442578  0.14437550  0.73639815     0.09100
C311        C  0.43469376  0.12647572  0.75492868     0.10900
C312        C  0.41012414  0.10858604  0.76903496    -0.15900
C313        C  0.65862749  0.10025798  0.69319874    -0.15000
C314        C  0.67544346  0.07486011  0.70727384     0.09100
C315        C  0.69208816  0.04441877  0.72600659     0.10900
C316        C  0.70353506  0.01797446  0.74356493    -0.15900
C317        C  0.54722892  0.19202736  0.53399132    -0.15000
C318        C  0.53615936  0.19271757  0.50096630     0.09100
C319        C  0.52313901  0.19274119  0.46227428     0.10900
C320        C  0.51201196  0.19209180  0.42927115    -0.15900
C321        C  0.99042934  0.29760467  0.74455830    -0.15000
C322        C  0.96449256  0.31004017  0.72712012     0.09100
C323        C  0.93488857  0.32807893  0.70852994     0.10900
C324        C  0.91038207  0.34606097  0.69444713    -0.15900
C325        C  0.85570648  0.51777958  0.71988398    -0.15000
C326        C  0.86725879  0.54425321  0.73730228     0.09100
C327        C  0.88397419  0.57473753  0.75587152     0.10900
C328        C  0.90078133  0.60016559  0.76988771    -0.15900
C329        C  0.82258600  0.45972682  0.53426244    -0.15000
C330        C  0.82203696  0.47093479  0.50127742     0.09100
C331        C  0.82194921  0.48411082  0.46264199     0.10900
C332        C  0.82237958  0.49526746  0.42963533    -0.15900
C333        C  0.65028357  0.28659732  0.66511741    -0.15000
C334        C  0.67167270  0.31200772  0.66680935     0.09100
C335        C  0.69973337  0.33900473  0.66671875     0.10900
C336        C  0.72583576  0.35947121  0.66493054    -0.15900
loop_ 
_geom_bond_atom_site_label_1 
_geom_bond_atom_site_label_2 
_geom_bond_distance 
_geom_bond_site_symmetry_2 
_ccdc_geom_bond_type 
O1            C4   1.263       .  A
O1           Cd6   2.471       .  S
C2           O11   1.263       .  A
C2            O7   1.264       .  A
C2          C324   1.437       .  S
O3            C9   1.264       .  A
O3           Cd6   2.486       .  S
C4           O12   1.263       .  A
C4          C329   1.436       .  S
C5           O10   1.265       .  A
C5            O8   1.263       .  A
C5          C336   1.438       .  S
Cd6          O13   2.460       .  S
Cd6          O12   2.471       .  S
Cd6          O11   2.464       .  S
Cd6           O7   2.479       .  S
Cd6          O10   2.487       .  S
Cd6           O8   2.457       .  S
C9           O13   1.262       .  A
C9          C325   1.437       .  S
O14          C17   1.264       .  A
O14         Cd19   2.478       .  S
C15          O24   1.264       .  A
C15          O20   1.263       .  A
C15         C317   1.437       .  S
O16          C22   1.265       .  A
O16         Cd19   2.488       .  S
C17          O25   1.263       .  A
C17         C313   1.437       .  S
C18          O23   1.265       .  A
C18          O21   1.262       .  A
C18         C333   1.437       .  S
Cd19         O26   2.456       .  S
Cd19         O25   2.462       .  S
Cd19         O24   2.475       .  S
Cd19         O20   2.470       .  S
Cd19         O23   2.492       .  S
Cd19         O21   2.455       .  S
C22          O26   1.263       .  A
C22         C309   1.437       .  S
O27          C30   1.264       .  A
O27         Cd32   2.478       .  S
C28          O37   1.264       .  A
C28          O33   1.263       .  A
C28         C301   1.437       .  S
O29          C35   1.265       .  A
O29         Cd32   2.488       .  S
C30          O38   1.263       .  A
C30         C296   1.436       .  S
C31          O36   1.265       .  A
C31          O34   1.262       .  A
C31         C305   1.437       .  S
Cd32         O39   2.455       .  S
Cd32         O38   2.461       .  S
Cd32         O37   2.474       .  S
Cd32         O33   2.469       .  S
Cd32         O36   2.491       .  S
Cd32         O34   2.454       .  S
C35          O39   1.263       .  A
C35         C297   1.437       .  S
O40          C43   1.263       .  A
O40         Cd45   2.470       .  S
C41          O50   1.263       .  A
C41          O46   1.264       .  A
C41         C288   1.437       .  S
O42          C48   1.264       .  A
O42         Cd45   2.487       .  S
C43          O51   1.263       .  A
C43         C332   1.436       .  S
C44          O49   1.265       .  A
C44          O47   1.263       .  A
C44         C308   1.437       .  S
Cd45         O52   2.460       .  S
Cd45         O51   2.471       .  S
Cd45         O50   2.465       .  S
Cd45         O46   2.479       .  S
Cd45         O49   2.487       .  S
Cd45         O47   2.456       .  S
C48          O52   1.262       .  A
C48         C292   1.437       .  S
O53          C56   1.263       .  A
O53         Cd58   2.468       .  S
C54          O63   1.263       .  A
C54          O59   1.264       .  A
C54         C273   1.437       .  S
O55          C61   1.265       .  A
O55         Cd58   2.493       .  S
C56          O64   1.264       .  A
C56         C304   1.437       .  S
C57          O62   1.265       .  A
C57          O60   1.263       .  A
C57         C280   1.437       .  S
Cd58         O65   2.454       .  S
Cd58         O64   2.473       .  S
Cd58         O63   2.463       .  S
Cd58         O59   2.477       .  S
Cd58         O62   2.487       .  S
Cd58         O60   2.454       .  S
C61          O65   1.262       .  A
C61         C281   1.437       .  S
O66          C69   1.263       .  A
O66         Cd71   2.470       .  S
C67          O76   1.263       .  A
C67          O72   1.264       .  A
C67         C265   1.437       .  S
O68          C74   1.264       .  A
O68         Cd71   2.486       .  S
C69          O77   1.263       .  A
C69         C269   1.436       .  S
C70          O75   1.265       .  A
C70          O73   1.263       .  A
C70         C284   1.437       .  S
Cd71         O78   2.461       .  S
Cd71         O77   2.470       .  S
Cd71         O76   2.463       .  S
Cd71         O72   2.478       .  S
Cd71         O75   2.485       .  S
Cd71         O73   2.456       .  S
C74          O78   1.262       .  A
C74         C264   1.437       .  S
O79          C82   1.263       .  A
O79         Cd84   2.470       .  S
C80          O89   1.263       .  A
C80          O85   1.264       .  A
C80         C253   1.437       .  S
O81          C87   1.264       .  A
O81         Cd84   2.485       .  S
C82          O90   1.263       .  A
C82         C272   1.436       .  S
C83          O88   1.265       .  A
C83          O86   1.263       .  A
C83         C257   1.437       .  S
Cd84         O91   2.460       .  S
Cd84         O90   2.470       .  S
Cd84         O89   2.465       .  S
Cd84         O85   2.478       .  S
Cd84         O88   2.484       .  S
Cd84         O86   2.457       .  S
C87          O91   1.262       .  A
C87         C252   1.437       .  S
O92          C95   1.264       .  A
O92         Cd97   2.469       .  S
C93         O102   1.263       .  A
C93          O98   1.264       .  A
C93         C245   1.437       .  S
O94         C100   1.265       .  A
O94         Cd97   2.493       .  S
C95         O103   1.264       .  A
C95         C320   1.437       .  S
C96         O101   1.265       .  A
C96          O99   1.263       .  A
C96         C241   1.437       .  S
Cd97        O104   2.453       .  S
Cd97        O103   2.474       .  S
Cd97        O102   2.464       .  S
Cd97         O98   2.478       .  S
Cd97        O101   2.487       .  S
Cd97         O99   2.454       .  S
C100        O104   1.262       .  A
C100        C260   1.437       .  S
O105        C108   1.263       .  A
O105       Cd110   2.470       .  S
C106        O115   1.263       .  A
C106        O111   1.264       .  A
C106        C277   1.437       .  S
O107        C113   1.264       .  A
O107       Cd110   2.485       .  S
C108        O116   1.263       .  A
C108        C233   1.436       .  S
C109        O114   1.264       .  A
C109        O112   1.263       .  A
C109        C240   1.437       .  S
Cd110       O117   2.460       .  S
Cd110       O116   2.470       .  S
Cd110       O115   2.464       .  S
Cd110       O111   2.479       .  S
Cd110       O114   2.485       .  S
Cd110       O112   2.457       .  S
C113        O117   1.262       .  A
C113        C316   1.437   1_565  S
O118        C121   1.264       .  A
O118       Cd123   2.469       .  S
C119        O128   1.263       .  A
C119        O124   1.264       .  A
C119        C328   1.437       .  S
O120        C126   1.265       .  A
O120       Cd123   2.493       .  S
C121        O129   1.264   1_655  A
C121        C229   1.437   1_655  S
C122        O127   1.265       .  A
C122        O125   1.263       .  A
C122        C268   1.437       .  S
Cd123       O130   2.454       .  S
Cd123       O129   2.473   1_655  S
Cd123       O128   2.463       .  S
Cd123       O124   2.478       .  S
Cd123       O127   2.486   1_655  S
Cd123       O125   2.455   1_655  S
C126        O130   1.262       .  A
C126        C237   1.437       .  S
O131        C134   1.263       .  A
O131       Cd136   2.469       .  S
C132        O141   1.263       .  A
C132        O137   1.264       .  A
C132        C244   1.437       .  S
O133        C139   1.264       .  A
O133       Cd136   2.486   1_565  S
C134        O142   1.263   1_545  A
C134        C236   1.436   1_545  S
C135        O140   1.265       .  A
C135        O138   1.263       .  A
C135        C225   1.437       .  S
Cd136       O143   2.461   1_545  S
Cd136       O142   2.470   1_545  S
Cd136       O141   2.463       .  S
Cd136       O137   2.478       .  S
Cd136       O140   2.485       .  S
Cd136       O138   2.457       .  S
C139        O143   1.262       .  A
C139        C293   1.437       .  S
O144        C147   1.264       .  A
O144       Cd149   2.478       .  S
C145        O154   1.264   1_655  A
C145        O150   1.263       .  A
C145        C221   1.437   1_655  S
O146        C152   1.265       .  A
O146       Cd149   2.487   1_455  S
C147        O155   1.263       .  A
C147        C289   1.437       .  S
C148        O153   1.265       .  A
C148        O151   1.262       .  A
C148        C228   1.437       .  S
Cd149       O156   2.454   1_655  S
Cd149       O155   2.463       .  S
Cd149       O154   2.473   1_655  S
Cd149       O150   2.468       .  S
Cd149       O153   2.493       .  S
Cd149       O151   2.454       .  S
C152        O156   1.263       .  A
C152        C256   1.437       .  S
O157        C160   1.263       .  A
O157       Cd162   2.471       .  S
C158        O167   1.263       .  A
C158        O163   1.264       .  A
C158        C312   1.437       .  S
O159        C165   1.264       .  A
O159       Cd162   2.486   1_565  S
C160        O168   1.263   1_545  A
C160        C216   1.436   1_545  S
C161        O166   1.265       .  A
C161        O164   1.263       .  A
C161        C220   1.437       .  S
Cd162       O169   2.460   1_545  S
Cd162       O168   2.471   1_545  S
Cd162       O167   2.465       .  S
Cd162       O163   2.478       .  S
Cd162       O166   2.486       .  S
Cd162       O164   2.456       .  S
C165        O169   1.262       .  A
C165        C276   1.437       .  S
O170        C173   1.264       .  A
O170       Cd175   2.478       .  S
C171        O180   1.264       .  A
C171        O176   1.263       .  A
C171        C224   1.437       .  S
O172        C178   1.265       .  A
O172       Cd175   2.487       .  S
C173        O181   1.263       .  A
C173        C261   1.437       .  S
C174        O179   1.265       .  A
C174        O177   1.262       .  A
C174        C217   1.437       .  S
Cd175       O182   2.455       .  S
Cd175       O181   2.462       .  S
Cd175       O180   2.474       .  S
Cd175       O176   2.469       .  S
Cd175       O179   2.491       .  S
Cd175       O177   2.454       .  S
C178        O182   1.263       .  A
C178        C321   1.437   1_455  S
O183        C186   1.263       .  A
O183       Cd188   2.470       .  S
C184        O193   1.263       .  A
C184        O189   1.264       .  A
C184        C249   1.436       .  S
O185        C191   1.265       .  A
O185       Cd188   2.492       .  S
C186        O194   1.264       .  A
C186        C232   1.437       .  S
C187        O192   1.265       .  A
C187        O190   1.263       .  A
C187        C285   1.437   1_455  S
Cd188       O195   2.454       .  S
Cd188       O194   2.474       .  S
Cd188       O193   2.462       .  S
Cd188       O189   2.478       .  S
Cd188       O192   2.488       .  S
Cd188       O190   2.456       .  S
C191        O195   1.262       .  A
C191        C209   1.437       .  S
O196        C199   1.263       .  A
O196       Cd201   2.470       .  S
C197        O206   1.263       .  A
C197        O202   1.264       .  A
C197        C300   1.437       .  S
O198        C204   1.264       .  A
O198       Cd201   2.487       .  S
C199        O207   1.263       .  A
C199        C213   1.436       .  S
C200        O205   1.265       .  A
C200        O203   1.263       .  A
C200        C212   1.437       .  S
Cd201       O208   2.461       .  S
Cd201       O207   2.471       .  S
Cd201       O206   2.464       .  S
Cd201       O202   2.479       .  S
Cd201       O205   2.486       .  S
Cd201       O203   2.457       .  S
C204        O208   1.262       .  A
C204        C248   1.437   1_565  S
C209        C210   1.207       .  T
C210        C211   1.414       .  S
C211        C212   1.207       .  T
C213        C214   1.206       .  T
C214        C215   1.413   1_554  S
C215        C216   1.206       .  T
C217        C218   1.207       .  T
C218        C219   1.414       .  S
C219        C220   1.207       .  T
C221        C222   1.206       .  T
C222        C223   1.414   1_554  S
C223        C224   1.206       .  T
C225        C226   1.207       .  T
C226        C227   1.414       .  S
C227        C228   1.207       .  T
C229        C230   1.206       .  T
C230        C231   1.414   1_556  S
C231        C232   1.207       .  T
C233        C234   1.206       .  T
C234        C235   1.412   1_556  S
C235        C236   1.206       .  T
C237        C238   1.207       .  T
C238        C239   1.414       .  S
C239        C240   1.207       .  T
C241        C242   1.206       .  T
C242        C243   1.414       .  S
C243        C244   1.206       .  T
C245        C246   1.207       .  T
C246        C247   1.414       .  S
C247        C248   1.207       .  T
C249        C250   1.206       .  T
C250        C251   1.413       .  S
C251        C252   1.206       .  T
C253        C254   1.207       .  T
C254        C255   1.414       .  S
C255        C256   1.207       .  T
C257        C258   1.207       .  T
C258        C259   1.414       .  S
C259        C260   1.207       .  T
C261        C262   1.206       .  T
C262        C263   1.413       .  S
C263        C264   1.206       .  T
C265        C266   1.206       .  T
C266        C267   1.414       .  S
C267        C268   1.206       .  T
C269        C270   1.206       .  T
C270        C271   1.412       .  S
C271        C272   1.206       .  T
C273        C274   1.206       .  T
C274        C275   1.413       .  S
C275        C276   1.206       .  T
C277        C278   1.207       .  T
C278        C279   1.414       .  S
C279        C280   1.207       .  T
C281        C282   1.207       .  T
C282        C283   1.414       .  S
C283        C284   1.207       .  T
C285        C286   1.207       .  T
C286        C287   1.414       .  S
C287        C288   1.207       .  T
C289        C290   1.206       .  T
C290        C291   1.414       .  S
C291        C292   1.207       .  T
C293        C294   1.206       .  T
C294        C295   1.413       .  S
C295        C296   1.206       .  T
C297        C298   1.206       .  T
C298        C299   1.414       .  S
C299        C300   1.206       .  T
C301        C302   1.206       .  T
C302        C303   1.414       .  S
C303        C304   1.206       .  T
C305        C306   1.207       .  T
C306        C307   1.414       .  S
C307        C308   1.207       .  T
C309        C310   1.207       .  T
C310        C311   1.414       .  S
C311        C312   1.207       .  T
C313        C314   1.206       .  T
C314        C315   1.413       .  S
C315        C316   1.206       .  T
C317        C318   1.207       .  T
C318        C319   1.414       .  S
C319        C320   1.207       .  T
C321        C322   1.207       .  T
C322        C323   1.414       .  S
C323        C324   1.207       .  T
C325        C326   1.206       .  T
C326        C327   1.413       .  S
C327        C328   1.206       .  T
C329        C330   1.206       .  T
C330        C331   1.413       .  S
C331        C332   1.206       .  T
C333        C334   1.207       .  T
C334        C335   1.414       .  S
C335        C336   1.207       .  T
