geometry optimzed in LAMMPS
_audit_creation_date              2020-12-01 
_audit_creation_method            'lammps2cif' 
_symmetry_space_group_name_H-M    'P1' 
_symmetry_Int_Tables_number       1 
_symmetry_cell_setting            triclinic 
loop_ 
_symmetry_equiv_pos_as_xyz 
  x,y,z 
_cell_length_a                    23.01690585 
_cell_length_b                    23.215753274074775 
_cell_length_c                    35.296768860011724 
_cell_angle_alpha                 89.15005391132372 
_cell_angle_beta                  89.82122103293544 
_cell_angle_gamma                 89.87851705385307 
loop_ 
_atom_site_label 
_atom_site_type_symbol 
_atom_site_fract_x 
_atom_site_fract_y 
_atom_site_fract_z 
_atom_site_charge 
O1          O  0.42245914  0.24712105  0.13998724    -0.71200
O2          O  0.48285127  0.08349952  0.12985756    -0.72200
O3          O  0.44693582  0.17325628  0.07987611    -0.60800
O4          O  0.46170053  0.15672025  0.19109816    -0.69200
O5          O  0.37181658  0.12256437  0.19508599    -0.68800
O6          O  0.35716926  0.13832531  0.08061647    -0.60000
O7          O  0.39263231  0.05002088  0.13264309    -0.72500
O8          O  0.33389697  0.20982940  0.14320302    -0.71300
Cu9        Cu  0.45660101  0.16634457  0.13516128     1.04600
Cu10       Cu  0.36065198  0.12912065  0.13807442     1.04300
C11         C  0.36735911  0.25364299  0.14238085     0.95000
C12         C  0.44714378  0.04125645  0.12993463     0.94100
C13         C  0.40085863  0.15908061  0.06253081     0.86300
C14         C  0.42002718  0.13575551  0.21072334     0.92500
O15         O  0.49825935  0.67325428  0.14537835    -0.71200
O16         O  0.42544137  0.83235779  0.13200433    -0.72200
O17         O  0.46739115  0.74586623  0.08212133    -0.60800
O18         O  0.45198964  0.75807269  0.19453604    -0.69200
O19         O  0.53970249  0.79687687  0.19798719    -0.68800
O20         O  0.55434120  0.78678692  0.08194267    -0.60000
O21         O  0.51372926  0.87023257  0.13433977    -0.72500
O22         O  0.58438364  0.71627418  0.14650880    -0.71300
Cu23       Cu  0.45772145  0.75098564  0.13825936     1.04600
Cu24       Cu  0.55106199  0.79392788  0.14016224     1.04300
C25         C  0.55357309  0.67101824  0.14909894     0.95000
C26         C  0.45893689  0.87640891  0.13157793     0.94100
C27         C  0.51173363  0.76440262  0.06398193     0.86300
C28         C  0.49319753  0.77845298  0.21430077     0.92500
O29         O  0.47705863  0.17997319  0.83831805    -0.71200
O30         O  0.42476808  0.17318353  0.94547480    -0.72200
O31         O  0.48333817  0.09628838  0.89736090    -0.60800
O32         O  0.41469411  0.25711345  0.88730101    -0.69200
O33         O  0.33243447  0.21586651  0.86967732    -0.68800
O34         O  0.39830579  0.05889746  0.88143187    -0.60000
O35         O  0.34000776  0.13464362  0.93059137    -0.72500
O36         O  0.39354995  0.14107779  0.82070967    -0.71300
Cu37       Cu  0.45288314  0.17806954  0.89264867     1.04600
Cu38       Cu  0.36312692  0.13648065  0.87485504     1.04300
C39         C  0.44407124  0.16097145  0.81246415     0.95000
C40         C  0.37564267  0.15257899  0.95551504     0.94100
C41         C  0.45105254  0.05247595  0.89148605     0.86300
C42         C  0.36146848  0.26102413  0.87720051     0.92500
O43         O  0.44788338  0.77076726  0.83315048    -0.71200
O44         O  0.49134280  0.75859492  0.94317737    -0.72200
O45         O  0.43519497  0.84347167  0.89640328    -0.60800
O46         O  0.50813628  0.68524947  0.87828683    -0.69200
O47         O  0.59044565  0.73166372  0.86606704    -0.68800
O48         O  0.52076221  0.88387810  0.88458976    -0.60000
O49         O  0.57579128  0.80132532  0.93208599    -0.72500
O50         O  0.53216876  0.81312676  0.82033848    -0.71300
Cu51       Cu  0.46769358  0.76280641  0.88836732     1.04600
Cu52       Cu  0.55772179  0.80865987  0.87547471     1.04300
C53         C  0.48270228  0.79443404  0.80943931     0.95000
C54         C  0.53901502  0.77934172  0.95546590     0.94100
C55         C  0.46703694  0.88845150  0.89260762     0.86300
C56         C  0.56160402  0.68501660  0.86794136     0.92500
O57         O  0.39884144  0.76413950  0.58358421    -0.71200
O58         O  0.43201566  0.77413986  0.69366112    -0.72200
O59         O  0.37385636  0.69099352  0.64728564    -0.60800
O60         O  0.45150718  0.84851183  0.63037974    -0.69200
O61         O  0.36557301  0.88997290  0.63847033    -0.68800
O62         O  0.29162382  0.73901330  0.65627636    -0.60000
O63         O  0.34800319  0.81849703  0.70359005    -0.72500
O64         O  0.31398967  0.80819264  0.58998213    -0.71300
Cu65       Cu  0.41700636  0.76783852  0.63836874     1.04600
Cu66       Cu  0.32682922  0.81529278  0.64733062     1.04300
C67         C  0.35252352  0.78457199  0.56889476     0.95000
C68         C  0.39624208  0.79810549  0.71612456     0.94100
C69         C  0.31931939  0.69162092  0.65494785     0.86300
C70         C  0.41984641  0.89400346  0.63211943     0.92500
O71         O  0.54982668  0.22678114  0.63944527    -0.71200
O72         O  0.48874923  0.06690829  0.63388949    -0.72200
O73         O  0.53614359  0.14635859  0.57973385    -0.60800
O74         O  0.49859298  0.14856931  0.69317136    -0.69200
O75         O  0.41218056  0.18578244  0.67930858    -0.68800
O76         O  0.44762312  0.18150851  0.56983611    -0.60000
O77         O  0.40044221  0.10183340  0.62293475    -0.72500
O78         O  0.46397868  0.26510294  0.62549536    -0.71300
Cu79       Cu  0.52153492  0.14606897  0.63710670     1.04600
Cu80       Cu  0.42809187  0.18481828  0.62405524     1.04300
C81         C  0.51817867  0.27087743  0.63249777     0.95000
C82         C  0.43488503  0.05889411  0.62770603     0.94100
C83         C  0.49616052  0.16391305  0.55709315     0.86300
C84         C  0.44837630  0.16669053  0.70361521     0.92500
O85         O  0.37839654  0.78789781  0.32960476    -0.71200
O86         O  0.35064105  0.77949540  0.44335768    -0.72200
O87         O  0.39920809  0.85988006  0.39212712    -0.60800
O88         O  0.32817338  0.70775220  0.38080685    -0.69200
O89         O  0.41255386  0.66222581  0.38703769    -0.68800
O90         O  0.48600151  0.81918339  0.39917555    -0.60000
O91         O  0.43610134  0.73581678  0.44900031    -0.72500
O92         O  0.46497522  0.74693872  0.33641480    -0.71300
Cu93       Cu  0.36119406  0.78498890  0.38616487     1.04600
Cu94       Cu  0.45302859  0.73941036  0.39318567     1.04300
C95         C  0.42609684  0.76981909  0.31518864     0.95000
C96         C  0.39021871  0.75661975  0.46407037     0.94100
C97         C  0.45364966  0.86401095  0.39755477     0.86300
C98         C  0.35757779  0.66115970  0.38199164     0.92500
O99         O  0.51105248  0.22637399  0.37191223    -0.71200
O100        O  0.43893725  0.07105096  0.39526933    -0.72200
O101        O  0.49170676  0.15771653  0.43841496    -0.60800
O102        O  0.45544370  0.14012189  0.32939544    -0.69200
O103        O  0.54063416  0.09725783  0.32053648    -0.68800
O104        O  0.57733863  0.11497847  0.43242606    -0.60000
O105        O  0.52541725  0.03015565  0.38764723    -0.72500
O106        O  0.59505721  0.18064029  0.36391419    -0.71300
Cu107      Cu  0.47130910  0.15034632  0.38421183     1.04600
Cu108      Cu  0.56264457  0.10436062  0.37594762     1.04300
C109        C  0.56490373  0.22660254  0.36284546     0.95000
C110        C  0.47134392  0.02622774  0.39476542     0.94100
C111        C  0.53852721  0.13841905  0.45322707     0.86300
C112        C  0.49247877  0.11682589  0.30748235     0.92500
O113        O  0.19109533  0.32889515  0.14308619    -0.71200
O114        O  0.04673595  0.41526385  0.12644862    -0.72200
O115        O  0.12872831  0.36489879  0.07679150    -0.60800
O116        O  0.11100757  0.38214048  0.19096123    -0.69200
O117        O  0.16052134  0.46399509  0.18725989    -0.68800
O118        O  0.17885355  0.44640927  0.07556823    -0.60000
O119        O  0.09347335  0.49859828  0.12398044    -0.72500
O120        O  0.24493236  0.40814635  0.14084212    -0.71300
Cu121      Cu  0.11790989  0.37005368  0.13417211     1.04600
Cu122      Cu  0.17147846  0.45719095  0.13153429     1.04300
C123        C  0.23997231  0.35362004  0.14637200     0.95000
C124        C  0.04583703  0.47000849  0.12410007     0.94100
C125        C  0.15616407  0.40422473  0.05823738     0.86300
C126        C  0.13260597  0.42649986  0.20676412     0.92500
O127        O  0.70372907  0.59473521  0.13823717    -0.71200
O128        O  0.87011665  0.54290438  0.13356607    -0.72200
O129        O  0.78756416  0.58302996  0.07941247    -0.60800
O130        O  0.78489820  0.55381178  0.19300064    -0.69200
O131        O  0.75301675  0.46510406  0.18335747    -0.68800
O132        O  0.75728831  0.49326583  0.07199762    -0.60000
O133        O  0.83826547  0.45362596  0.12587914    -0.72500
O134        O  0.67193000  0.50605298  0.12795141    -0.71300
Cu135      Cu  0.78765630  0.57187160  0.13651661     1.04600
Cu136      Cu  0.75425633  0.47645388  0.12710573     1.04300
C137        C  0.66200787  0.55948257  0.13298345     0.95000
C138        C  0.88009353  0.48945915  0.12843026     0.94100
C139        C  0.77215645  0.54199279  0.05788951     0.86300
C140        C  0.76813820  0.50475936  0.20595076     0.92500
O141        O  0.22705960  0.40402840  0.87228217    -0.71200
O142        O  0.06560679  0.47027961  0.89034104    -0.72200
O143        O  0.15403188  0.42129867  0.93737615    -0.60800
O144        O  0.13858254  0.45657910  0.82625383    -0.69200
O145        O  0.09987430  0.37031555  0.81751523    -0.68800
O146        O  0.11375837  0.33549333  0.93028657    -0.60000
O147        O  0.02789109  0.38348933  0.88197483    -0.72500
O148        O  0.18442104  0.31934944  0.86426442    -0.71300
Cu149      Cu  0.14781812  0.44109406  0.88202037     1.04600
Cu150      Cu  0.10533334  0.34917087  0.87336447     1.04300
C151        C  0.22987550  0.35045531  0.86428678     0.95000
C152        C  0.02144534  0.43698491  0.88819327     0.94100
C153        C  0.13537174  0.37394737  0.95171491     0.86300
C154        C  0.11684502  0.41916234  0.80431800     0.92500
O155        O  0.65039691  0.49366156  0.87825948    -0.71200
O156        O  0.81110212  0.41977253  0.88637586    -0.72200
O157        O  0.72780633  0.46388229  0.93759204    -0.60800
O158        O  0.73420851  0.44520479  0.82580333    -0.69200
O159        O  0.77581273  0.53104868  0.81971520    -0.68800
O160        O  0.76976757  0.54983271  0.93348679    -0.60000
O161        O  0.85083062  0.50658987  0.88125901    -0.72500
O162        O  0.69560615  0.57753962  0.87211522    -0.71300
Cu163      Cu  0.72927420  0.45252635  0.88212004     1.04600
Cu164      Cu  0.77421911  0.54419666  0.87632871     1.04300
C165        C  0.64865173  0.54863465  0.87447119     0.95000
C166        C  0.85603595  0.45228980  0.88548394     0.94100
C167        C  0.74809390  0.50854752  0.95331651     0.86300
C168        C  0.75705717  0.48455184  0.80506066     0.92500
O169        O  0.76114856  0.36140834  0.57504342    -0.71200
O170        O  0.77582494  0.37213888  0.68996669    -0.72200
O171        O  0.69013312  0.33343291  0.63968383    -0.60800
O172        O  0.84929787  0.39566221  0.62635720    -0.69200
O173        O  0.81375841  0.48453305  0.62352156    -0.68800
O174        O  0.64997665  0.42051659  0.63858436    -0.60000
O175        O  0.74004342  0.46086271  0.68620904    -0.72500
O176        O  0.72239150  0.44904128  0.57508868    -0.71300
Cu177      Cu  0.77027386  0.36251255  0.63267519     1.04600
Cu178      Cu  0.73026995  0.45682430  0.63058147     1.04300
C179        C  0.73941651  0.40487833  0.55721548     0.95000
C180        C  0.75993367  0.41892102  0.70591231     0.94100
C181        C  0.64567891  0.36575105  0.64273770     0.86300
C182        C  0.85719950  0.44978983  0.62331963     0.92500
O183        O  0.06883918  0.42945975  0.62491578    -0.71200
O184        O  0.22987377  0.50249828  0.63684648    -0.72200
O185        O  0.14243109  0.45479232  0.68669903    -0.60800
O186        O  0.15761045  0.47160670  0.57526350    -0.69200
O187        O  0.11559533  0.55772195  0.57528049    -0.68800
O188        O  0.10093803  0.54084149  0.69057182    -0.60000
O189        O  0.18454893  0.58671723  0.63925020    -0.72500
O190        O  0.02969349  0.51671998  0.62706980    -0.71300
Cu191      Cu  0.15117925  0.46156095  0.63083874     1.04600
Cu192      Cu  0.10639013  0.55351912  0.63311706     1.04300
C193        C  0.02397515  0.46244292  0.62440372     0.95000
C194        C  0.23143970  0.55744669  0.64006094     0.94100
C195        C  0.11900189  0.49407587  0.70643254     0.86300
C196        C  0.13919082  0.51595547  0.55739388     0.92500
O197        O  0.69953750  0.32729008  0.36660036    -0.71200
O198        O  0.85603341  0.39467988  0.37675877    -0.72200
O199        O  0.77662830  0.34293492  0.42768156    -0.60800
O200        O  0.77860019  0.37935920  0.31558549    -0.69200
O201        O  0.73775210  0.46447797  0.32577775    -0.68800
O202        O  0.73565085  0.42802223  0.43742559    -0.60000
O203        O  0.81569979  0.48024187  0.38653536    -0.72500
O204        O  0.65617285  0.41092129  0.37761637    -0.71300
Cu205      Cu  0.77892465  0.35815194  0.37120103     1.04600
Cu206      Cu  0.73480191  0.44899828  0.38215989     1.04300
C207        C  0.65338086  0.35708201  0.37098561     0.95000
C208        C  0.86065966  0.44828224  0.38337351     0.94100
C209        C  0.75605780  0.38033551  0.45029664     0.86300
C210        C  0.75941970  0.42771333  0.30309029     0.92500
O211        O  0.14878906  0.49854581  0.43748499    -0.71200
O212        O  0.14671730  0.46285189  0.32657035    -0.72200
O213        O  0.22542745  0.52201768  0.37503730    -0.60800
O214        O  0.07081517  0.44100728  0.38844621    -0.69200
O215        O  0.02620247  0.52448164  0.37755909    -0.68800
O216        O  0.17599437  0.60272812  0.36360431    -0.60000
O217        O  0.10077885  0.54554995  0.31533355    -0.72500
O218        O  0.10212449  0.58088597  0.42702826    -0.71300
Cu219      Cu  0.14972041  0.47811999  0.38242774     1.04600
Cu220      Cu  0.09980314  0.56618380  0.37059717     1.04300
C221        C  0.12507974  0.54442066  0.45000364     0.95000
C222        C  0.12344613  0.49883569  0.30344402     0.94100
C223        C  0.22395398  0.57563209  0.36614765     0.86300
C224        C  0.02420228  0.47059016  0.38468357     0.92500
C225        C  0.91825298  0.47424105  0.38643095    -0.14700
C226        C  0.96723356  0.44257920  0.38723745    -0.29900
H227        H  0.92035321  0.52104792  0.38675359     0.14300
H228        H  0.96539626  0.39575746  0.38801012     0.14900
C229        C  0.14567311  0.51553132  0.51576792    -0.14700
C230        C  0.12252283  0.55425001  0.49147555    -0.29900
H231        H  0.16856017  0.47854103  0.50449054     0.14300
H232        H  0.09904101  0.59131463  0.50204092     0.14900
C233        C  0.73404153  0.40741449  0.51562315    -0.14700
C234        C  0.75715550  0.36910605  0.49173538    -0.29900
H235        H  0.71253698  0.44546088  0.50408445     0.14300
H236        H  0.77908760  0.33092884  0.50262975     0.14900
C237        C  0.91705982  0.47255829  0.62082388    -0.14700
C238        C  0.96467483  0.43819564  0.62183733    -0.29900
H239        H  0.92201841  0.51909294  0.61999167     0.14300
H240        H  0.95996098  0.39163855  0.62251460     0.14900
C241        C  0.76267901  0.42475319  0.74751523    -0.14700
C242        C  0.76084396  0.47703975  0.76371165    -0.29900
H243        H  0.76500445  0.38595104  0.76501817     0.14300
H244        H  0.76246669  0.51576201  0.74608651     0.14900
C245        C  0.11345918  0.43111286  0.76313564    -0.14700
C246        C  0.11410346  0.48484768  0.74792578    -0.29900
H247        H  0.11147709  0.39417897  0.74461233     0.14300
H248        H  0.11207726  0.52215231  0.76610987     0.14900
C249        C  0.96231987  0.46076141  0.89124400    -0.14700
C250        C  0.91470301  0.42724742  0.88842950    -0.29900
H251        H  0.95788572  0.50723449  0.89361264     0.14300
H252        H  0.91896514  0.38068487  0.88671086     0.14900
C253        C  0.76552777  0.49395942  0.24737299    -0.14700
C254        C  0.76224076  0.44009696  0.26195822    -0.29900
H255        H  0.76749582  0.53053769  0.26613861     0.14300
H256        H  0.76428047  0.40350559  0.24318390     0.14900
C257        C  0.77135283  0.54992567  0.01627943    -0.14700
C258        C  0.74661173  0.50944625  0.99484546    -0.29900
H259        H  0.79163519  0.58753821  0.00339034     0.14300
H260        H  0.72584961  0.47260653  0.00845313     0.14900
C261        C  0.12603553  0.43476565  0.24793569    -0.14700
C262        C  0.12453876  0.48804363  0.26242287    -0.29900
H263        H  0.12204591  0.39714311  0.26642282     0.14300
H264        H  0.12382551  0.52535121  0.24345049     0.14900
C265        C  0.13664598  0.36491170  0.99356008    -0.14700
C266        C  0.16094908  0.40420444  0.01633191    -0.29900
H267        H  0.11460462  0.32767017  0.00578667     0.14300
H268        H  0.18313137  0.44097851  0.00353603     0.14900
C269        C  0.98840453  0.49903245  0.12333310    -0.14700
C270        C  0.93967675  0.46686546  0.12572584    -0.29900
H271        H  0.98599337  0.54581966  0.12269772     0.14300
H272        H  0.94306528  0.42011085  0.12589366     0.14900
C273        C  0.59505893  0.27845844  0.34979609    -0.14700
C274        C  0.59741801  0.32655576  0.37012795    -0.29900
H275        H  0.62925866  0.27077523  0.32911162     0.14300
H276        H  0.56485137  0.33574342  0.39152909     0.14900
C277        C  0.32517012  0.60684837  0.37820462    -0.14700
C278        C  0.27609248  0.60937416  0.35788757    -0.29900
H279        H  0.33489289  0.57036396  0.39672883     0.14300
H280        H  0.26852282  0.64712868  0.33989471     0.14900
C281        C  0.47938632  0.92133333  0.40041050    -0.14700
C282        C  0.44599333  0.96901172  0.40060401    -0.29900
H283        H  0.52649517  0.92454160  0.39963838     0.14300
H284        H  0.39892221  0.96577338  0.40210975     0.14900
C285        C  0.54709220  0.32780303  0.63080145    -0.14700
C286        C  0.59150580  0.33705612  0.65447758    -0.29900
H287        H  0.54087937  0.35505180  0.60586003     0.14300
H288        H  0.59660778  0.30739774  0.67840189     0.14900
C289        C  0.50222230  0.16480822  0.51557149    -0.14700
C290        C  0.54538984  0.14150251  0.49502573    -0.29900
H291        H  0.46531352  0.18387015  0.50083818     0.14300
H292        H  0.58270163  0.12170054  0.50879247     0.14900
C293        C  0.28455966  0.63957760  0.66313020    -0.14700
C294        C  0.28661850  0.59002265  0.64381547    -0.29900
H295        H  0.24605369  0.64768533  0.68023845     0.14300
H296        H  0.32366078  0.57945001  0.62611566     0.14900
C297        C  0.38596270  0.75461499  0.50590709    -0.14700
C298        C  0.34558155  0.78192107  0.52700564    -0.29900
H299        H  0.42128224  0.73205450  0.52016379     0.14300
H300        H  0.30987660  0.80483844  0.51347717     0.14900
C301        C  0.44555928  0.95216112  0.62801787    -0.14700
C302        C  0.41156099  0.99975739  0.62703738    -0.29900
H303        H  0.49256802  0.95609696  0.62728402     0.14300
H304        H  0.36457024  0.99541526  0.62680132     0.14900
C305        C  0.59334892  0.58173408  0.87446872    -0.14700
C306        C  0.59337671  0.63302368  0.85626555    -0.29900
H307        H  0.55909402  0.57017496  0.89437375     0.14300
H308        H  0.62908875  0.64200750  0.83676549     0.14900
C309        C  0.46660010  0.79865265  0.76891290    -0.14700
C310        C  0.41090763  0.80077057  0.75693338    -0.29900
H311        H  0.50174713  0.79990193  0.74825733     0.14300
H312        H  0.37568677  0.80385713  0.77739914     0.14900
C313        C  0.33034679  0.31686462  0.87609840    -0.14700
C314        C  0.28405114  0.32171305  0.85325585    -0.29900
H315        H  0.33716392  0.34713580  0.89882015     0.14300
H316        H  0.27868455  0.28964623  0.83136010     0.14900
C317        C  0.46566931  0.16188213  0.77297108    -0.14700
C318        C  0.42918174  0.16435853  0.74356314    -0.29900
H319        H  0.51226648  0.16343440  0.76806444     0.14300
H320        H  0.38272373  0.16695593  0.74893328     0.14900
C321        C  0.47539180  0.99399963  0.89521177    -0.14700
C322        C  0.44160821  0.94653560  0.89568693    -0.29900
H323        H  0.52241551  0.98988615  0.89615575     0.14300
H324        H  0.39456037  0.95054717  0.89613601     0.14900
C325        C  0.58447892  0.61760047  0.15855396    -0.14700
C326        C  0.60243243  0.58242203  0.13125510    -0.29900
H327        H  0.60978427  0.61878807  0.18451369     0.14300
H328        H  0.58028159  0.58204261  0.10412200     0.14900
C329        C  0.43461332  0.77408763  0.27347415    -0.14700
C330        C  0.48712184  0.77887130  0.25636654    -0.29900
H331        H  0.39565651  0.77439088  0.25616102     0.14300
H332        H  0.52607418  0.78259316  0.27344835     0.14900
C333        C  0.51011011  0.75971937  0.02198418    -0.14700
C334        C  0.55019644  0.77998186  0.99719389    -0.29900
H335        H  0.47098027  0.74017211  0.01078508     0.14300
H336        H  0.58954897  0.80006785  0.00754723     0.14900
C337        C  0.28771296  0.31604593  0.15914908    -0.14700
C338        C  0.33978740  0.31143393  0.14231160    -0.29900
H339        H  0.27364989  0.28063272  0.17752572     0.14300
H340        H  0.35598026  0.34504850  0.12337036     0.14900
C341        C  0.48094506  0.11556885  0.26643280    -0.14700
C342        C  0.42806671  0.12730124  0.25183673    -0.29900
H343        H  0.51745258  0.10776270  0.24761407     0.14300
H344        H  0.39053517  0.13161477  0.27028332     0.14900
C345        C  0.36225367  0.14805266  0.99655931    -0.14700
C346        C  0.40156923  0.16773820  0.02129412    -0.29900
H347        H  0.32338921  0.12593341  0.00630475     0.14300
H348        H  0.44011503  0.18955482  0.01061842     0.14900
C349        C  0.46957013  0.98189401  0.12798101    -0.14700
C350        C  0.43462701  0.93523376  0.12892018    -0.29900
H351        H  0.51646975  0.97651184  0.12740051     0.14300
H352        H  0.38770380  0.94034147  0.12933317     0.14900
loop_ 
_geom_bond_atom_site_label_1 
_geom_bond_atom_site_label_2 
_geom_bond_distance 
_geom_bond_site_symmetry_2 
_ccdc_geom_bond_type 
O1           Cu9   2.041       .  S
O1           C11   1.280       .  A
O2           Cu9   2.026       .  S
O2           C12   1.281       .  A
O3           Cu9   1.969       .  S
O3           C13   1.273       .  A
O4           Cu9   1.988       .  S
O4           C14   1.275       .  A
O5          Cu10   2.033       .  S
O5           C14   1.281       .  A
O6          Cu10   2.038       .  S
O6           C13   1.281       .  A
O7          Cu10   1.989       .  S
O7           C12   1.274       .  A
O8          Cu10   1.982       .  S
O8           C11   1.277       .  A
Cu9         Cu10   2.375       .  S
C11         C338   1.483       .  S
C12         C349   1.473   1_545  S
C13         C346   1.466       .  S
C14         C342   1.474       .  S
O15         Cu23   2.042       .  S
O15          C25   1.281       .  A
O16         Cu23   2.038       .  S
O16          C26   1.282       .  A
O17         Cu23   1.999       .  S
O17          C27   1.275       .  A
O18         Cu23   2.000       .  S
O18          C28   1.275       .  A
O19         Cu24   2.059       .  S
O19          C28   1.285       .  A
O20         Cu24   2.065       .  S
O20          C27   1.284       .  A
O21         Cu24   1.975       .  S
O21          C26   1.273       .  A
O22         Cu24   1.968       .  S
O22          C25   1.271       .  A
Cu23        Cu24   2.372       .  S
C25         C325   1.463       .  S
C26         C350   1.477       .  S
C27         C333   1.489       .  S
C28         C330   1.491       .  S
O29         Cu37   1.995       .  S
O29          C39   1.273       .  A
O30         Cu37   1.974       .  S
O30          C40   1.276       .  A
O31         Cu37   2.027       .  S
O31          C41   1.281       .  A
O32         Cu37   2.040       .  S
O32          C42   1.280       .  A
O33         Cu38   1.978       .  S
O33          C42   1.276       .  A
O34         Cu38   1.984       .  S
O34          C41   1.274       .  A
O35         Cu38   2.036       .  S
O35          C40   1.279       .  A
O36         Cu38   2.035       .  S
O36          C39   1.283       .  A
Cu37        Cu38   2.373       .  S
C39         C317   1.478       .  S
C40         C345   1.482       .  S
C41         C321   1.472   1_545  S
C42         C313   1.480       .  S
O43         Cu51   2.009       .  S
O43          C53   1.276       .  A
O44         Cu51   2.012       .  S
O44          C54   1.279       .  A
O45         Cu51   2.039       .  S
O45          C55   1.282       .  A
O46         Cu51   2.060       .  S
O46          C56   1.283       .  A
O47         Cu52   1.971       .  S
O47          C56   1.272       .  A
O48         Cu52   1.971       .  S
O48          C55   1.272       .  A
O49         Cu52   2.047       .  S
O49          C54   1.282       .  A
O50         Cu52   2.036       .  S
O50          C53   1.282       .  A
Cu51        Cu52   2.371       .  S
C53         C309   1.481       .  S
C54         C334   1.496       .  S
C55         C322   1.474       .  S
C56         C306   1.473       .  S
O57         Cu65   1.983       .  S
O57          C67   1.275       .  A
O58         Cu65   1.991       .  S
O58          C68   1.274       .  A
O59         Cu65   2.063       .  S
O59          C69   1.283       .  A
O60         Cu65   2.051       .  S
O60          C70   1.284       .  A
O61         Cu66   1.972       .  S
O61          C70   1.272       .  A
O62         Cu66   1.970       .  S
O62          C69   1.272       .  A
O63         Cu66   2.049       .  S
O63          C68   1.283       .  A
O64         Cu66   2.056       .  S
O64          C67   1.283       .  A
Cu65        Cu66   2.370       .  S
C67         C298   1.490       .  S
C68         C310   1.483       .  S
C69         C293   1.475       .  S
C70         C301   1.480       .  S
O71         Cu79   1.988       .  S
O71          C81   1.276       .  A
O72         Cu79   1.993       .  S
O72          C82   1.274       .  A
O73         Cu79   2.052       .  S
O73          C83   1.283       .  A
O74         Cu79   2.048       .  S
O74          C84   1.284       .  A
O75         Cu80   1.984       .  S
O75          C84   1.272       .  A
O76         Cu80   1.967       .  S
O76          C83   1.272       .  A
O77         Cu80   2.031       .  S
O77          C82   1.282       .  A
O78         Cu80   2.042       .  S
O78          C81   1.280       .  A
Cu79        Cu80   2.373       .  S
C81         C285   1.481       .  S
C82         C302   1.476   1_545  S
C83         C289   1.472       .  S
C84         C318   1.477       .  S
O85         Cu93   2.034       .  S
O85          C95   1.281       .  A
O86         Cu93   2.035       .  S
O86          C96   1.279       .  A
O87         Cu93   1.962       .  S
O87          C97   1.272       .  A
O88         Cu93   1.961       .  S
O88          C98   1.275       .  A
O89         Cu94   2.036       .  S
O89          C98   1.279       .  A
O90         Cu94   2.017       .  S
O90          C97   1.279       .  A
O91         Cu94   2.008       .  S
O91          C96   1.278       .  A
O92         Cu94   2.027       .  S
O92          C95   1.279       .  A
Cu93        Cu94   2.374       .  S
C95         C329   1.487       .  S
C96         C297   1.480       .  S
C97         C281   1.463       .  S
C98         C277   1.474       .  S
O99        Cu107   2.030       .  S
O99         C109   1.279       .  A
O100       Cu107   2.020       .  S
O100        C110   1.279       .  A
O101       Cu107   1.981       .  S
O101        C111   1.277       .  A
O102       Cu107   1.988       .  S
O102        C112   1.274       .  A
O103       Cu108   2.031       .  S
O103        C112   1.281       .  A
O104       Cu108   2.042       .  S
O104        C111   1.280       .  A
O105       Cu108   1.964       .  S
O105        C110   1.272       .  A
O106       Cu108   1.963       .  S
O106        C109   1.272       .  A
Cu107      Cu108   2.375       .  S
C109        C273   1.459       .  S
C110        C282   1.463   1_545  S
C111        C290   1.487       .  S
C112        C341   1.475       .  S
O113       Cu121   1.959       .  S
O113        C123   1.270       .  A
O114       Cu121   1.961       .  S
O114        C124   1.273       .  A
O115       Cu121   2.045       .  S
O115        C125   1.282       .  A
O116       Cu121   2.034       .  S
O116        C126   1.281       .  A
O117       Cu122   1.991       .  S
O117        C126   1.275       .  A
O118       Cu122   2.002       .  S
O118        C125   1.276       .  A
O119       Cu122   2.051       .  S
O119        C124   1.283       .  A
O120       Cu122   2.061       .  S
O120        C123   1.283       .  A
Cu121      Cu122   2.372       .  S
C123        C337   1.469       .  S
C124        C269   1.483   1_455  S
C125        C266   1.483       .  S
C126        C261   1.476       .  S
O127       Cu135   2.003       .  S
O127        C137   1.279       .  A
O128       Cu135   2.015       .  S
O128        C138   1.277       .  A
O129       Cu135   2.028       .  S
O129        C139   1.279       .  A
O130       Cu135   2.032       .  S
O130        C140   1.281       .  A
O131       Cu136   1.999       .  S
O131        C140   1.277       .  A
O132       Cu136   1.979       .  S
O132        C139   1.276       .  A
O133       Cu136   2.004       .  S
O133        C138   1.278       .  A
O134       Cu136   2.015       .  S
O134        C137   1.276       .  A
Cu135      Cu136   2.375       .  S
C137        C326   1.471       .  S
C138        C270   1.471       .  S
C139        C257   1.478       .  S
C140        C253   1.481       .  S
O141       Cu149   2.045       .  S
O141        C151   1.281       .  A
O142       Cu149   2.031       .  S
O142        C152   1.281       .  A
O143       Cu149   2.006       .  S
O143        C153   1.278       .  A
O144       Cu149   2.008       .  S
O144        C154   1.276       .  A
O145       Cu150   2.029       .  S
O145        C154   1.281       .  A
O146       Cu150   2.039       .  S
O146        C153   1.281       .  A
O147       Cu150   1.975       .  S
O147        C152   1.273       .  A
O148       Cu150   1.973       .  S
O148        C151   1.273       .  A
Cu149      Cu150   2.374       .  S
C151        C314   1.467       .  S
C152        C249   1.472   1_455  S
C153        C265   1.489       .  S
C154        C245   1.478       .  S
O155       Cu163   2.054       .  S
O155        C165   1.282       .  A
O156       Cu163   2.035       .  S
O156        C166   1.282       .  A
O157       Cu163   1.980       .  S
O157        C167   1.274       .  A
O158       Cu163   2.000       .  S
O158        C168   1.275       .  A
O159       Cu164   2.026       .  S
O159        C168   1.280       .  A
O160       Cu164   2.026       .  S
O160        C167   1.280       .  A
O161       Cu164   1.973       .  S
O161        C166   1.273       .  A
O162       Cu164   1.972       .  S
O162        C165   1.275       .  A
Cu163      Cu164   2.374       .  S
C165        C305   1.485       .  S
C166        C250   1.472       .  S
C167        C258   1.467       .  S
C168        C242   1.475       .  S
O169       Cu177   2.046       .  S
O169        C179   1.283       .  A
O170       Cu177   2.042       .  S
O170        C180   1.283       .  A
O171       Cu177   1.979       .  S
O171        C181   1.273       .  A
O172       Cu177   1.987       .  S
O172        C182   1.273       .  A
O173       Cu178   2.041       .  S
O173        C182   1.283       .  A
O174       Cu178   2.050       .  S
O174        C181   1.282       .  A
O175       Cu178   1.981       .  S
O175        C180   1.273       .  A
O176       Cu178   1.979       .  S
O176        C179   1.272       .  A
Cu177      Cu178   2.374       .  S
C179        C233   1.474       .  S
C180        C241   1.478       .  S
C181        C286   1.470       .  S
C182        C237   1.479       .  S
O183       Cu191   2.050       .  S
O183        C193   1.284       .  A
O184       Cu191   2.060       .  S
O184        C194   1.283       .  A
O185       Cu191   1.985       .  S
O185        C195   1.274       .  A
O186       Cu191   1.977       .  S
O186        C196   1.272       .  A
O187       Cu192   2.053       .  S
O187        C196   1.284       .  A
O188       Cu192   2.048       .  S
O188        C195   1.283       .  A
O189       Cu192   1.972       .  S
O189        C194   1.274       .  A
O190       Cu192   1.976       .  S
O190        C193   1.272       .  A
Cu191      Cu192   2.371       .  S
C193        C238   1.481   1_455  S
C194        C294   1.487       .  S
C195        C246   1.481       .  S
C196        C229   1.477       .  S
O197       Cu205   1.972       .  S
O197        C207   1.277       .  A
O198       Cu205   1.980       .  S
O198        C208   1.274       .  A
O199       Cu205   2.020       .  S
O199        C209   1.277       .  A
O200       Cu205   2.017       .  S
O200        C210   1.278       .  A
O201       Cu206   2.018       .  S
O201        C210   1.278       .  A
O202       Cu206   2.004       .  S
O202        C209   1.279       .  A
O203       Cu206   2.007       .  S
O203        C208   1.278       .  A
O204       Cu206   2.024       .  S
O204        C207   1.277       .  A
Cu205      Cu206   2.375       .  S
C207        C274   1.472       .  S
C208        C225   1.462       .  S
C209        C234   1.482       .  S
C210        C254   1.477       .  S
O211       Cu219   2.007       .  S
O211        C221   1.280       .  A
O212       Cu219   2.010       .  S
O212        C222   1.277       .  A
O213       Cu219   2.035       .  S
O213        C223   1.280       .  A
O214       Cu219   2.021       .  S
O214        C224   1.279       .  A
O215       Cu220   1.966       .  S
O215        C224   1.273       .  A
O216       Cu220   1.963       .  S
O216        C223   1.272       .  A
O217       Cu220   2.016       .  S
O217        C222   1.278       .  A
O218       Cu220   2.027       .  S
O218        C221   1.278       .  A
Cu219      Cu220   2.375       .  S
C221        C230   1.486       .  S
C222        C262   1.473       .  S
C223        C278   1.461       .  S
C224        C226   1.467   1_455  S
C225        C226   1.345       .  D
C225        H227   1.088       .  S
C226        H228   1.088       .  S
C229        C230   1.344       .  D
C229        H231   1.086       .  S
C230        H232   1.085       .  S
C233        C234   1.343       .  D
C233        H235   1.086       .  S
C234        H236   1.085       .  S
C237        C238   1.354       .  D
C237        H239   1.087       .  S
C238        H240   1.086       .  S
C241        C242   1.350       .  D
C241        H243   1.086       .  S
C242        H244   1.086       .  S
C245        C246   1.351       .  D
C245        H247   1.087       .  S
C246        H248   1.086       .  S
C249        C250   1.350       .  D
C249        H251   1.088       .  S
C250        H252   1.088       .  S
C253        C254   1.347       .  D
C253        H255   1.086       .  S
C254        H256   1.086       .  S
C257        C258   1.344   1_554  D
C257        H259   1.084       .  S
C258        H260   1.086   1_556  S
C261        C262   1.346       .  D
C261        H263   1.086       .  S
C262        H264   1.087       .  S
C265        C266   1.348   1_556  D
C265        H267   1.087   1_556  S
C266        H268   1.087       .  S
C269        C270   1.350       .  D
C269        H271   1.087       .  S
C270        H272   1.088       .  S
C273        C274   1.338       .  D
C273        H275   1.088       .  S
C274        H276   1.086       .  S
C277        C278   1.341       .  D
C277        H279   1.086       .  S
C278        H280   1.089       .  S
C281        C282   1.346       .  D
C281        H283   1.087       .  S
C282        H284   1.087       .  S
C285        C286   1.342       .  D
C285        H287   1.086       .  S
C286        H288   1.088       .  S
C289        C290   1.346       .  D
C289        H291   1.087       .  S
C290        H292   1.086       .  S
C293        C294   1.347       .  D
C293        H295   1.089       .  S
C294        H296   1.085       .  S
C297        C298   1.352       .  D
C297        H299   1.087       .  S
C298        H300   1.086       .  S
C301        C302   1.353       .  D
C301        H303   1.086       .  S
C302        H304   1.087       .  S
C305        C306   1.345       .  D
C305        H307   1.086       .  S
C306        H308   1.089       .  S
C309        C310   1.352       .  D
C309        H311   1.087       .  S
C310        H312   1.087       .  S
C313        C314   1.342       .  D
C313        H315   1.086       .  S
C314        H316   1.088       .  S
C317        C318   1.338       .  D
C317        H319   1.086       .  S
C318        H320   1.087       .  S
C321        C322   1.350       .  D
C321        H323   1.087       .  S
C322        H324   1.087       .  S
C325        C326   1.336       .  D
C325        H327   1.088       .  S
C326        H328   1.087       .  S
C329        C330   1.353       .  D
C329        H331   1.087       .  S
C330        H332   1.086       .  S
C333        C334   1.350   1_554  D
C333        H335   1.087       .  S
C334        H336   1.086   1_556  S
C337        C338   1.341       .  D
C337        H339   1.089       .  S
C338        H340   1.086       .  S
C341        C342   1.349       .  D
C341        H343   1.086       .  S
C342        H344   1.085       .  S
C345        C346   1.345   1_556  D
C345        H347   1.085   1_556  S
C346        H348   1.086       .  S
C349        C350   1.351       .  D
C349        H351   1.087       .  S
C350        H352   1.086       .  S
