geometry optimzed in LAMMPS
_audit_creation_date              2020-12-01 
_audit_creation_method            'lammps2cif' 
_symmetry_space_group_name_H-M    'P1' 
_symmetry_Int_Tables_number       1 
_symmetry_cell_setting            triclinic 
loop_ 
_symmetry_equiv_pos_as_xyz 
  x,y,z 
_cell_length_a                    20.66815053 
_cell_length_b                    19.217872295770363 
_cell_length_c                    20.56599764289507 
_cell_angle_alpha                 89.00145498402662 
_cell_angle_beta                  89.18314512010357 
_cell_angle_gamma                 88.64848671367177 
loop_ 
_atom_site_label 
_atom_site_type_symbol 
_atom_site_fract_x 
_atom_site_fract_y 
_atom_site_fract_z 
_atom_site_charge 
N1          N  0.09413885  0.91437002  0.09158728    -0.06500
N2          N  0.15541532  0.89945392  0.09878798    -0.58700
N3          N  0.93548205  0.91433545  0.11949498    -0.06200
N4          N  0.87916430  0.90231493  0.14610877    -0.60800
N5          N  0.95435218  0.86308623  0.08215070    -0.05800
N6          N  0.91101954  0.81393130  0.08277290    -0.58600
N7          N  0.07426555  0.96034664  0.13388760    -0.05500
N8          N  0.12127950  0.97401241  0.17417905    -0.61100
C9          C  0.17196529  0.93519633  0.15135052     0.95600
C10         C  0.86463694  0.84001203  0.12258512     0.95400
N11         N  0.88231595  0.10335716  0.04570034    -0.06700
N12         N  0.82475283  0.13382040  0.04633626    -0.59200
N13         N  0.02819301  0.10891908  0.11225747    -0.04800
N14         N  0.08304631  0.11923934  0.14072269    -0.60500
N15         N  0.02025703  0.15303377  0.06355463    -0.06800
N16         N  0.06905302  0.19588441  0.05924560    -0.59500
N17         N  0.88906183  0.06164917  0.09631780    -0.04500
N18         N  0.83597911  0.06171415  0.13192479    -0.60600
Mn19       Mn  0.98093848  0.01169276  0.11933996     1.18400
C20         C  0.79609399  0.10675417  0.10022058     0.97700
C21         C  0.10812326  0.17263708  0.10669790     0.98400
N22         N  0.97527763  0.84814185  0.93751537    -0.06800
N23         N  0.92295821  0.81069475  0.94452157    -0.63100
N24         N  0.11134721  0.93481999  0.90405590    -0.05600
N25         N  0.16590307  0.93713298  0.87115541    -0.63800
N26         N  0.11615107  0.89137477  0.95302303    -0.06300
N27         N  0.17407828  0.86210593  0.95468039    -0.63300
N28         N  0.96960449  0.89179361  0.88782775    -0.05200
N29         N  0.91285390  0.88606402  0.86133567    -0.64000
Mn30       Mn  0.03593950  0.87506212  0.01685592     1.10700
C31         C  0.88444021  0.83604367  0.89740273     0.98900
C32         C  0.20449945  0.89071061  0.90268872     0.99000
N33         N  0.04978985  0.13455282  0.92241864    -0.06300
N34         N  0.09553337  0.17992896  0.93043825    -0.61700
N35         N  0.93480844  0.04268750  0.85947890    -0.05600
N36         N  0.90050739  0.04226028  0.80588183    -0.58400
N37         N  0.91231869  0.08947489  0.89989723    -0.06900
N38         N  0.86160299  0.12117718  0.87616951    -0.61200
N39         N  0.07162529  0.08246613  0.88746026    -0.05900
N40         N  0.13264212  0.09012505  0.87257130    -0.58400
Mn41       Mn  0.96402261  0.12350465  0.98214548     1.20200
Mn42       Mn  0.02253011  0.98709797  0.88103443     1.10100
Cl43       Cl  0.99984996  0.99920948  0.99975405    -0.86400
C44         C  0.14701087  0.15082402  0.89990881     0.95900
C45         C  0.85430660  0.09090051  0.81821658     0.95700
C46         C  0.75908452  0.78977074  0.78205331    -0.02900
C47         C  0.74753178  0.76732859  0.24678183    -0.02900
C48         C  0.55707145  0.70901094  0.04516264     0.01900
C49         C  0.56380890  0.69886097  0.97698277     0.01800
C50         C  0.50834341  0.68237997  0.94244421    -0.18700
C51         C  0.44443102  0.69114869  0.96779534     0.01900
C52         C  0.43766396  0.70017164  0.03728766     0.01800
C53         C  0.49487694  0.70668193  0.07348869    -0.18700
H54         H  0.49088795  0.71496403  0.12547899     0.03900
H55         H  0.51586408  0.66861755  0.89205426     0.03900
C56         C  0.74194284  0.23335068  0.77452854    -0.02900
C57         C  0.68308267  0.98501299  0.56842144     0.00200
C58         C  0.67794218  0.05931036  0.56160585     0.01800
C59         C  0.67077596  0.08808843  0.49849336    -0.18700
C60         C  0.67804920  0.04928943  0.44125311     0.01900
C61         C  0.68267963  0.97497790  0.44829551     0.01800
C62         C  0.68226538  0.94509706  0.51152296    -0.18700
H63         H  0.68730873  0.88888942  0.51643695     0.03900
H64         H  0.66487005  0.14396380  0.49393063     0.03900
C65         C  0.74854407  0.24254511  0.22302285    -0.02900
C66         C  0.54042844  0.32431314  0.03689481     0.01900
C67         C  0.54502820  0.32519038  0.96697240     0.01800
C68         C  0.48655450  0.32592954  0.93199978    -0.18700
C69         C  0.42527041  0.31725923  0.96121748     0.01900
C70         C  0.42065354  0.31963297  0.03068361     0.01800
C71         C  0.47780609  0.32993195  0.06544114    -0.18700
H72         H  0.47361055  0.33277301  0.11801082     0.03900
H73         H  0.48876195  0.32370271  0.87940037     0.03900
C74         C  0.24029282  0.75477159  0.77622428    -0.02900
C75         C  0.02446364  0.56135059  0.71930889     0.01900
C76         C  0.95457147  0.56297879  0.72540208     0.01800
C77         C  0.92446037  0.49747313  0.73055564    -0.18700
C78         C  0.95758463  0.43196759  0.72975938     0.01900
C79         C  0.02582075  0.43104825  0.71399807     0.01800
C80         C  0.05469867  0.49654830  0.70472783    -0.18700
H81         H  0.10592657  0.49787355  0.69399463     0.03900
H82         H  0.87281214  0.49687160  0.73973076     0.03900
C83         C  0.24193572  0.22663278  0.76619955    -0.02900
C84         C  0.30693323  0.95285261  0.56023283     0.01900
C85         C  0.30384559  0.02744365  0.55701149     0.01800
C86         C  0.30683797  0.06039426  0.49494998    -0.18700
C87         C  0.30670209  0.02274091  0.43645872     0.01900
C88         C  0.31209764  0.94861887  0.44058016     0.01800
C89         C  0.32060133  0.91751335  0.50218831    -0.18700
H90         H  0.32937945  0.86163609  0.50474039     0.03900
H91         H  0.30231391  0.11673249  0.49205143     0.03900
C92         C  0.23039555  0.21806704  0.22447358    -0.02900
C93         C  0.23340662  0.77098297  0.23247497    -0.02900
C94         C  0.96146260  0.56424797  0.29881778     0.01900
C95         C  0.02838275  0.56124462  0.28021275     0.01800
C96         C  0.05975439  0.49539547  0.28198095    -0.18700
C97         C  0.02796725  0.43140459  0.29050237     0.01900
C98         C  0.95806189  0.43519852  0.29922815     0.01800
C99         C  0.93106072  0.50139052  0.31491411    -0.18700
H100        H  0.88045525  0.50474025  0.32970747     0.03900
H101        H  0.11133294  0.49405517  0.27248588     0.03900
C102        C  0.07455906  0.68151809  0.29905672    -0.13800
C103        C  0.07166082  0.62135336  0.26187392     0.08400
C104        C  0.12069040  0.61144591  0.21399323    -0.13800
C105        C  0.17389680  0.65533457  0.20789795    -0.13800
C106        C  0.17990861  0.71435810  0.24722447     0.08400
C107        C  0.12625572  0.72786833  0.29049090    -0.13800
H108        H  0.03773879  0.69210781  0.33577259     0.12400
H109        H  0.11938759  0.56704325  0.18233219     0.12400
H110        H  0.20887096  0.64310154  0.17011921     0.12400
H111        H  0.12299967  0.77598337  0.31698072     0.12400
C112        C  0.18864038  0.32519824  0.29199668    -0.13800
C113        C  0.17533306  0.26862458  0.25258147     0.08400
C114        C  0.10807146  0.25719131  0.24291897    -0.13800
C115        C  0.05998459  0.30840082  0.25391582    -0.13800
C116        C  0.07395827  0.36813331  0.28779762     0.08400
C117        C  0.13853703  0.37217585  0.31150112    -0.13800
H118        H  0.23785265  0.33393894  0.30664145     0.12400
H119        H  0.09138647  0.20890712  0.22512504     0.12400
H120        H  0.01291603  0.30144912  0.23346808     0.12400
H121        H  0.15166986  0.41479615  0.34202340     0.12400
C122        C  0.24487518  0.79244993  0.35534897    -0.13800
C123        C  0.27168815  0.79630089  0.29231151     0.08400
C124        C  0.32257569  0.84431971  0.28285930    -0.13800
C125        C  0.33494303  0.89591081  0.32893713    -0.13800
C126        C  0.29899013  0.89861981  0.38717241     0.08400
C127        C  0.25560442  0.84438426  0.40028013    -0.13800
H128        H  0.21311688  0.75132629  0.37009071     0.12400
H129        H  0.34855885  0.84661731  0.23683441     0.12400
H130        H  0.37182206  0.93382972  0.31874326     0.12400
H131        H  0.22930377  0.84199607  0.44605707     0.12400
C132        C  0.22747893  0.07014066  0.35537788    -0.13800
C133        C  0.29168853  0.06413551  0.37590885     0.08400
C134        C  0.33661854  0.11120518  0.34921376    -0.13800
C135        C  0.31806546  0.16173954  0.30186103    -0.13800
C136        C  0.25350024  0.16745674  0.28028349     0.08400
C137        C  0.20856649  0.12138156  0.30958200    -0.13800
H138        H  0.19107191  0.03709152  0.37716695     0.12400
H139        H  0.38587429  0.11014731  0.36653513     0.12400
H140        H  0.35427352  0.19679876  0.28310918     0.12400
H141        H  0.15814799  0.12425122  0.29604899     0.12400
C142        C  0.21226984  0.13698606  0.68121364    -0.13800
C143        C  0.25993102  0.18155003  0.70548302     0.08400
C144        C  0.32257747  0.17514265  0.67767322    -0.13800
C145        C  0.33770173  0.12249987  0.63229472    -0.13800
C146        C  0.29098611  0.07461035  0.61331159     0.08400
C147        C  0.22775420  0.08385833  0.63728364    -0.13800
H148        H  0.16293232  0.14083551  0.69949218     0.12400
H149        H  0.36028666  0.20984558  0.69136236     0.12400
H150        H  0.38601739  0.11952158  0.61130133     0.12400
H151        H  0.18976872  0.05083312  0.62076312     0.12400
C152        C  0.13396028  0.37067397  0.68213660    -0.13800
C153        C  0.07364148  0.36900869  0.71670004     0.08400
C154        C  0.06645718  0.31415434  0.76159184    -0.13800
C155        C  0.11790599  0.26671258  0.77409933    -0.13800
C156        C  0.18177756  0.27557333  0.74813776     0.08400
C157        C  0.18736490  0.32733711  0.69951671    -0.13800
H158        H  0.14139310  0.40788248  0.64283869     0.12400
H159        H  0.02171329  0.30822973  0.78871599     0.12400
H160        H  0.10560071  0.22291711  0.80413484     0.12400
H161        H  0.23320352  0.33384949  0.67425512     0.12400
C162        C  0.31722422  0.91160594  0.67893225    -0.13800
C163        C  0.28972040  0.90612519  0.61757248     0.08400
C164        C  0.25237083  0.84674953  0.60660456    -0.13800
C165        C  0.24370225  0.79446376  0.65399790    -0.13800
C166        C  0.26614659  0.80166265  0.71770707     0.08400
C167        C  0.30596660  0.86046811  0.72773012    -0.13800
H168        H  0.34858305  0.95438913  0.68885172     0.12400
H169        H  0.23057385  0.83946110  0.55982638     0.12400
H170        H  0.21764838  0.74917970  0.64008408     0.12400
H171        H  0.32914382  0.86784621  0.77352610     0.12400
C172        C  0.18290086  0.63462320  0.77912106    -0.13800
C173        C  0.18404372  0.70435699  0.75705395     0.08400
C174        C  0.12734548  0.72879682  0.72376616    -0.13800
C175        C  0.07538614  0.68446020  0.70982455    -0.13800
C176        C  0.07338703  0.61659154  0.73654112     0.08400
C177        C  0.12764730  0.59448949  0.77365014    -0.13800
H178        H  0.22394337  0.60997606  0.80259491     0.12400
H179        H  0.12376863  0.78241772  0.70699779     0.12400
H180        H  0.03666119  0.70372068  0.67902060     0.12400
H181        H  0.12929098  0.54289145  0.79576580     0.12400
C182        C  0.32375477  0.34307579  0.10567664    -0.13800
C183        C  0.36524150  0.29561012  0.07276750     0.08400
C184        C  0.36860911  0.22700006  0.09708525    -0.13800
C185        C  0.33115536  0.20581808  0.15093655    -0.13800
C186        C  0.28608836  0.25147652  0.18232774     0.08400
C187        C  0.28382070  0.32121275  0.15859603    -0.13800
H188        H  0.32272184  0.39740990  0.09079603     0.12400
H189        H  0.40257240  0.18990410  0.07561940     0.12400
H190        H  0.33416205  0.15144249  0.16555427     0.12400
H191        H  0.24959202  0.35855285  0.17884091     0.12400
C192        C  0.32597081  0.34245747  0.89065685    -0.13800
C193        C  0.37412643  0.29585818  0.91441435     0.08400
C194        C  0.38650823  0.23505265  0.87883519    -0.13800
C195        C  0.35106485  0.21957128  0.82358558    -0.13800
C196        C  0.29866014  0.26258763  0.80191126     0.08400
C197        C  0.28854525  0.32598935  0.83573850    -0.13800
H198        H  0.31739697  0.39172848  0.91440737     0.12400
H199        H  0.42515997  0.19934113  0.89354932     0.12400
H200        H  0.36006329  0.16910443  0.80234050     0.12400
H201        H  0.24866392  0.36076781  0.82292272     0.12400
C202        C  0.79650507  0.36568956  0.23916501    -0.13800
C203        C  0.79979096  0.29348773  0.25050892     0.08400
C204        C  0.85649571  0.26760252  0.28264723    -0.13800
C205        C  0.90749609  0.31156332  0.30037281    -0.13800
C206        C  0.90674646  0.38235718  0.28174830     0.08400
C207        C  0.84982061  0.40753568  0.25011494    -0.13800
H208        H  0.75362972  0.39087001  0.21972729     0.12400
H209        H  0.86193295  0.21268701  0.29392308     0.12400
H210        H  0.94755173  0.28975827  0.32790212     0.12400
H211        H  0.84532435  0.46146968  0.23434195     0.12400
C212        C  0.70300957  0.32241843  0.12857636    -0.13800
C213        C  0.69086003  0.27649364  0.18262367     0.08400
C214        C  0.62915039  0.24617568  0.18394815    -0.13800
C215        C  0.58320733  0.26099711  0.13606979    -0.13800
C216        C  0.59462798  0.30850921  0.08437441     0.08400
C217        C  0.65531330  0.33990748  0.08186725    -0.13800
H218        H  0.75106436  0.34198537  0.11993484     0.12400
H219        H  0.61713329  0.20517732  0.21805633     0.12400
H220        H  0.53832328  0.23301225  0.13880391     0.12400
H221        H  0.66674743  0.37605972  0.04264596     0.12400
C222        C  0.67707219  0.20600243  0.32295953    -0.13800
C223        C  0.72776446  0.19010080  0.27891364     0.08400
C224        C  0.76038193  0.12467267  0.28874505    -0.13800
C225        C  0.74177994  0.07723830  0.33785976    -0.13800
C226        C  0.68891380  0.09170657  0.37925891     0.08400
C227        C  0.65591786  0.15659411  0.36955192    -0.13800
H228        H  0.65205658  0.25606125  0.31981059     0.12400
H229        H  0.80257251  0.11031941  0.25988373     0.12400
H230        H  0.77158131  0.03106355  0.34536264     0.12400
H231        H  0.61489599  0.17080267  0.40024414     0.12400
C232        C  0.85040377  0.27222113  0.71196412    -0.13800
C233        C  0.80294873  0.28193970  0.76258087     0.08400
C234        C  0.81782817  0.33387344  0.80785775    -0.13800
C235        C  0.87229562  0.37587532  0.80046343    -0.13800
C236        C  0.91467683  0.37077697  0.74632286     0.08400
C237        C  0.90369111  0.31689406  0.70290272    -0.13800
H238        H  0.84622494  0.23162049  0.67697154     0.12400
H239        H  0.78765961  0.34327027  0.85020444     0.12400
H240        H  0.87919552  0.41612662  0.83578860     0.12400
H241        H  0.93476203  0.31089692  0.66043928     0.12400
C242        C  0.70032621  0.24482805  0.89604956    -0.13800
C243        C  0.69607469  0.26468990  0.82886646     0.08400
C244        C  0.65197469  0.31915240  0.81418186    -0.13800
C245        C  0.60911463  0.34546736  0.86211097    -0.13800
C246        C  0.60547848  0.31507929  0.92550228     0.08400
C247        C  0.65331419  0.26548774  0.94186835    -0.13800
H248        H  0.73941966  0.21235913  0.91468066     0.12400
H249        H  0.65002288  0.34073762  0.76525508     0.12400
H250        H  0.57539486  0.38677739  0.84798511     0.12400
H251        H  0.65364491  0.24022959  0.98920203     0.12400
C252        C  0.65804203  0.15540235  0.72317099    -0.13800
C253        C  0.70274508  0.21039774  0.71467122     0.08400
C254        C  0.72413329  0.22395390  0.65094684    -0.13800
C255        C  0.71839676  0.17338997  0.60329580    -0.13800
C256        C  0.68403832  0.11131764  0.61525010     0.08400
C257        C  0.65060523  0.10524929  0.67479633    -0.13800
H258        H  0.63673513  0.14524150  0.77071431     0.12400
H259        H  0.75061125  0.27029227  0.63890030     0.12400
H260        H  0.74293756  0.18246520  0.55719009     0.12400
H261        H  0.62026531  0.06102483  0.68463721     0.12400
C262        C  0.28316833  0.77904102  0.11286097    -0.13800
C263        C  0.28156824  0.74757161  0.17611114     0.08400
C264        C  0.32612368  0.69208517  0.18675498    -0.13800
C265        C  0.37116720  0.67149326  0.13822531    -0.13800
C266        C  0.37603688  0.70742498  0.07764456     0.08400
C267        C  0.33035639  0.76087202  0.06557293    -0.13800
H268        H  0.24929783  0.81938821  0.09898231     0.12400
H269        H  0.32647201  0.66494334  0.23333296     0.12400
H270        H  0.40558268  0.62988633  0.14980634     0.12400
H271        H  0.33270772  0.79082729  0.02053358     0.12400
C272        C  0.32692196  0.67755277  0.92904788    -0.13800
C273        C  0.39124955  0.69651599  0.91709052     0.08400
C274        C  0.40631792  0.72122996  0.85315164    -0.13800
C275        C  0.36011501  0.72728938  0.80419963    -0.13800
C276        C  0.29440945  0.71767896  0.81833932     0.08400
C277        C  0.27924018  0.68969535  0.88144027    -0.13800
H278        H  0.31256689  0.65583787  0.97573823     0.12400
H279        H  0.45394646  0.73944129  0.84028555     0.12400
H280        H  0.37578947  0.74638184  0.75697116     0.12400
H281        H  0.22924537  0.68209640  0.89572285     0.12400
C282        C  0.66133185  0.83529328  0.31947158    -0.13800
C283        C  0.72617496  0.81318421  0.30669135     0.08400
C284        C  0.77445930  0.84571114  0.34336449    -0.13800
C285        C  0.75980541  0.89949325  0.38630747    -0.13800
C286        C  0.69634223  0.92493857  0.39452458     0.08400
C287        C  0.64677931  0.89051902  0.36251267    -0.13800
H288        H  0.62165542  0.81166982  0.29504080     0.12400
H289        H  0.82514133  0.83233125  0.33577192     0.12400
H290        H  0.79868691  0.92202244  0.41310133     0.12400
H291        H  0.59672214  0.90587974  0.37134052     0.12400
C292        C  0.82227457  0.69438013  0.32795282    -0.13800
C293        C  0.79675867  0.70526422  0.26473070     0.08400
C294        C  0.82783225  0.66557442  0.21509337    -0.13800
C295        C  0.88606340  0.62812354  0.22515320    -0.13800
C296        C  0.91448971  0.62358621  0.28654499     0.08400
C297        C  0.88007272  0.65493600  0.33842853    -0.13800
H298        H  0.79830479  0.71648732  0.37002593     0.12400
H299        H  0.80785645  0.66313003  0.16721967     0.12400
H300        H  0.90691901  0.59855334  0.18531611     0.12400
H301        H  0.89671900  0.64666662  0.38771266     0.12400
C302        C  0.67790032  0.67994715  0.18199510    -0.13800
C303        C  0.69028001  0.74852537  0.20129906     0.08400
C304        C  0.65697790  0.80308243  0.16711515    -0.13800
C305        C  0.61866296  0.79034687  0.11302763    -0.13800
C306        C  0.61057384  0.72251032  0.09118412     0.08400
C307        C  0.63887536  0.66730394  0.12773792    -0.13800
H308        H  0.69939398  0.63582622  0.20768721     0.12400
H309        H  0.66373566  0.85673759  0.18023346     0.12400
H310        H  0.59402473  0.83369971  0.08884617     0.12400
H311        H  0.62945937  0.61404592  0.11511653     0.12400
C312        C  0.70310871  0.69084178  0.85183885    -0.13800
C313        C  0.70292831  0.75995317  0.82626184     0.08400
C314        C  0.65896816  0.80780133  0.85629492    -0.13800
C315        C  0.61926078  0.78870464  0.90932062    -0.13800
C316        C  0.62015745  0.72048604  0.93482184     0.08400
C317        C  0.66154304  0.67133341  0.90419750    -0.13800
H318        H  0.73679829  0.65189760  0.83354110     0.12400
H319        H  0.65782857  0.86191439  0.84067593     0.12400
H320        H  0.58578647  0.82721569  0.92932219     0.12400
H321        H  0.66124066  0.61744185  0.92043690     0.12400
C322        C  0.78237291  0.88176105  0.69213977    -0.13800
C323        C  0.73652396  0.83896296  0.72447694     0.08400
C324        C  0.67131319  0.84842612  0.70556335    -0.13800
C325        C  0.65300434  0.89995678  0.65886973    -0.13800
C326        C  0.69879837  0.94453034  0.62974629     0.08400
C327        C  0.76381196  0.93401113  0.64686079    -0.13800
H328        H  0.83326015  0.87591433  0.70331167     0.12400
H329        H  0.63412892  0.81580252  0.72623514     0.12400
H330        H  0.60302005  0.90362946  0.64385295     0.12400
H331        H  0.80093341  0.96433073  0.62278778     0.12400
C332        C  0.87947771  0.74287099  0.76574899    -0.13800
C333        C  0.81182185  0.73481929  0.75617100     0.08400
C334        C  0.79579449  0.67551821  0.72134315    -0.13800
C335        C  0.84336864  0.62357518  0.70635722    -0.13800
C336        C  0.90841819  0.62648521  0.72886667     0.08400
C337        C  0.92497354  0.68822482  0.75843503    -0.13800
H338        H  0.89847189  0.79133548  0.78074535     0.12400
H339        H  0.74616079  0.66831286  0.70726536     0.12400
H340        H  0.82799206  0.57958028  0.67886896     0.12400
H341        H  0.97231608  0.69465288  0.77823469     0.12400
C342        C  0.82225525  0.80836414  0.88187087    -0.16900
C343        C  0.79247270  0.83597736  0.82962056    -0.32000
H344        H  0.81257703  0.75579205  0.89892388     0.12200
H345        H  0.80062288  0.89025487  0.81666125     0.12700
C346        C  0.81210634  0.12342055  0.77099897    -0.16900
C347        C  0.76675125  0.16342449  0.79912000    -0.32000
H348        H  0.82908236  0.13053319  0.72145875     0.12200
H349        H  0.74510253  0.13996129  0.84227396     0.12700
C350        C  0.24246319  0.84524886  0.86305297    -0.16900
C351        C  0.20900643  0.80657069  0.82143999    -0.32000
H352        H  0.29405559  0.83970057  0.87103385     0.12200
H353        H  0.15639286  0.81234263  0.82128761     0.12700
C354        C  0.80996940  0.80197703  0.14576987    -0.16900
C355        C  0.78787779  0.81632578  0.20559572    -0.32000
H356        H  0.79385856  0.75858829  0.11799241     0.12200
H357        H  0.80250008  0.86491240  0.22656710     0.12700
C358        C  0.21495793  0.89794934  0.19473582    -0.16900
C359        C  0.19324065  0.83449244  0.21189731    -0.32000
H360        H  0.26533890  0.91146123  0.19419522     0.12200
H361        H  0.14141865  0.82706128  0.20588255     0.12700
C362        C  0.75432225  0.15030146  0.13898840    -0.16900
C363        C  0.78333240  0.20124940  0.17105968    -0.32000
H364        H  0.70512489  0.13488935  0.14976788     0.12200
H365        H  0.83395012  0.21194690  0.16004164     0.12700
C366        C  0.19971837  0.19174777  0.87601284    -0.16900
C367        C  0.22250986  0.17369021  0.81739754    -0.32000
H368        H  0.20111156  0.24515199  0.89205193     0.12200
H369        H  0.22348855  0.11878808  0.80499675     0.12700
C370        C  0.16844043  0.20324691  0.12354921    -0.16900
C371        C  0.19952607  0.17361712  0.17412584    -0.32000
H372        H  0.17511945  0.25744353  0.10979648     0.12200
H373        H  0.19463030  0.11805879  0.18359699     0.12700
loop_ 
_geom_bond_atom_site_label_1 
_geom_bond_atom_site_label_2 
_geom_bond_distance 
_geom_bond_site_symmetry_2 
_ccdc_geom_bond_type 
N1            N2   1.302       .  A
N1            N7   1.306       .  A
N1          Mn30   2.125       .  S
N2            C9   1.343       .  A
N3            N5   1.308       .  A
N3            N4   1.303       .  A
N3          Mn19   2.113   1_565  S
N4           C10   1.341       .  A
N5            N6   1.317       .  A
N5          Mn30   2.155   1_655  S
N6           C10   1.345       .  A
N7            N8   1.320       .  A
N7          Mn19   2.168   1_465  S
N8            C9   1.355       .  A
C9          C358   1.438       .  S
C10         C354   1.432       .  S
N11          N17   1.310       .  A
N11          N12   1.314       .  A
N11         Mn41   2.159   1_554  S
N12          C20   1.351       .  A
N13          N14   1.304       .  A
N13          N15   1.311       .  A
N13         Mn19   2.130   1_455  S
N14          C21   1.342       .  A
N15          N16   1.318       .  A
N15         Mn41   2.144   1_454  S
N16          C21   1.340       .  A
N17          N18   1.310       .  A
N17         Mn19   2.162       .  S
N18          C20   1.348       .  A
Mn19        Cl43   2.500   1_544  S
C20         C362   1.432       .  S
C21         C370   1.440       .  S
N22          N23   1.318       .  A
N22          N28   1.316       .  A
N22         Mn30   2.150   1_656  S
N23          C31   1.341       .  A
N24          N26   1.300       .  A
N24          N25   1.308       .  A
N24         Mn42   2.127       .  S
N25          C32   1.347       .  A
N26          N27   1.311       .  A
N26         Mn30   2.126   1_556  S
N27          C32   1.348       .  A
N28          N29   1.308       .  A
N28         Mn42   2.157   1_655  S
N29          C31   1.345       .  A
Mn30        Cl43   2.503   1_454  S
C31         C342   1.445       .  S
C32         C350   1.420       .  S
N33          N34   1.315       .  A
N33          N39   1.310       .  A
N33         Mn41   2.155   1_455  S
N34          C44   1.343       .  A
N35          N36   1.319       .  A
N35          N37   1.308       .  A
N35         Mn42   2.131   1_645  S
N36          C45   1.345       .  A
N37          N38   1.297       .  A
N37         Mn41   2.134       .  S
N38          C45   1.347       .  A
N39          N40   1.305       .  A
N39         Mn42   2.123   1_545  S
N40          C44   1.345       .  A
Mn41        Cl43   2.506   1_545  S
Mn42        Cl43   2.493   1_455  S
C44         C366   1.435       .  S
C45         C346   1.439       .  S
C46         C313   1.576       .  S
C46         C323   1.571       .  S
C46         C333   1.592       .  S
C46         C343   1.517       .  S
C47         C283   1.579       .  S
C47         C293   1.591       .  S
C47         C303   1.571       .  S
C47         C355   1.513       .  S
C48          C49   1.423   1_554  A
C48          C53   1.405       .  A
C48         C306   1.496       .  S
C49          C50   1.403       .  A
C49         C316   1.504       .  S
C50          C51   1.421       .  A
C50          H55   1.082       .  S
C51          C52   1.447   1_556  A
C51         C273   1.526       .  S
C52          C53   1.415       .  A
C52         C266   1.515       .  S
C53          H54   1.085       .  S
C56         C233   1.600       .  S
C56         C243   1.574       .  S
C56         C253   1.559       .  S
C56         C347   1.509       .  S
C57          C58   1.434   1_565  A
C57          C62   1.411       .  A
C57         C326   1.506       .  S
C58          C59   1.410       .  A
C58         C256   1.510       .  S
C59          C60   1.409       .  A
C59          H64   1.080       .  S
C60          C61   1.434   1_545  A
C60         C226   1.518       .  S
C61          C62   1.412       .  A
C61         C286   1.498       .  S
C62          H63   1.086       .  S
C65         C203   1.576       .  S
C65         C213   1.584       .  S
C65         C223   1.577       .  S
C65         C363   1.507       .  S
C66          C67   1.440   1_554  A
C66          C71   1.416       .  A
C66         C216   1.518       .  S
C67          C68   1.415       .  A
C67         C246   1.513       .  S
C68          C69   1.406       .  A
C68          H73   1.084       .  S
C69          C70   1.432   1_556  A
C69         C193   1.509       .  S
C70          C71   1.409       .  A
C70         C183   1.502       .  S
C71          H72   1.086       .  S
C74         C166   1.585       .  S
C74         C173   1.589       .  S
C74         C276   1.574       .  S
C74         C351   1.503       .  S
C75          C76   1.448   1_455  A
C75          C80   1.415       .  A
C75         C176   1.533       .  S
C76          C77   1.419       .  A
C76         C336   1.533       .  S
C77          C78   1.419       .  A
C77          H82   1.082       .  S
C78          C79   1.442   1_655  A
C78         C236   1.521       .  S
C79          C80   1.415       .  A
C79         C153   1.531       .  S
C80          H81   1.079       .  S
C83         C143   1.568       .  S
C83         C156   1.586       .  S
C83         C196   1.572       .  S
C83         C367   1.508       .  S
C84          C85   1.434   1_565  A
C84          C89   1.406       .  A
C84         C163   1.513       .  S
C85          C86   1.416       .  A
C85         C146   1.500       .  S
C86          C87   1.415       .  A
C86          H91   1.085       .  S
C87          C88   1.427   1_545  A
C87         C133   1.498       .  S
C88          C89   1.403       .  A
C88         C126   1.504       .  S
C89          H90   1.085       .  S
C92         C113   1.588       .  S
C92         C136   1.564       .  S
C92         C186   1.573       .  S
C92         C371   1.511       .  S
C93         C106   1.592       .  S
C93         C123   1.563       .  S
C93         C263   1.581       .  S
C93         C359   1.517       .  S
C94          C95   1.430   1_655  A
C94          C99   1.407       .  A
C94         C296   1.500       .  S
C95          C96   1.408       .  A
C95         C103   1.517       .  S
C96          C97   1.415       .  A
C96         H101   1.081       .  S
C97          C98   1.454   1_455  A
C97         C116   1.527       .  S
C98          C99   1.418       .  A
C98         C206   1.536       .  S
C99         H100   1.086       .  S
C102        C103   1.400       .  A
C102        C107   1.414       .  A
C102        H108   1.083       .  S
C103        C104   1.415       .  A
C104        C105   1.404       .  A
C104        H109   1.083       .  S
C105        C106   1.413       .  A
C105        H110   1.079       .  S
C106        C107   1.434       .  A
C107        H111   1.082       .  S
C112        C113   1.402       .  A
C112        C117   1.416       .  A
C112        H118   1.083       .  S
C113        C114   1.430       .  A
C114        C115   1.401       .  A
C114        H119   1.070       .  S
C115        C116   1.391       .  A
C115        H120   1.077       .  S
C116        C117   1.432       .  A
C117        H121   1.083       .  S
C122        C123   1.404       .  A
C122        C127   1.396       .  A
C122        H128   1.076       .  S
C123        C124   1.425       .  A
C124        C125   1.413       .  A
C124        H129   1.082       .  S
C125        C126   1.402       .  A
C125        H130   1.083       .  S
C126        C127   1.411       .  A
C127        H131   1.081       .  S
C132        C133   1.400       .  A
C132        C137   1.403       .  A
C132        H138   1.083       .  S
C133        C134   1.411       .  A
C134        C135   1.414       .  A
C134        H139   1.083       .  S
C135        C136   1.414       .  A
C135        H140   1.081       .  S
C136        C137   1.419       .  A
C137        H141   1.082       .  S
C142        C143   1.422       .  A
C142        C147   1.403       .  A
C142        H148   1.083       .  S
C143        C144   1.412       .  A
C144        C145   1.415       .  A
C144        H149   1.081       .  S
C145        C146   1.413       .  A
C145        H150   1.083       .  S
C146        C147   1.399       .  A
C147        H151   1.083       .  S
C152        C153   1.427       .  A
C152        C157   1.413       .  A
C152        H158   1.081       .  S
C153        C154   1.398       .  A
C154        C155   1.408       .  A
C154        H159   1.080       .  S
C155        C156   1.430       .  A
C155        H160   1.069       .  S
C156        C157   1.404       .  A
C157        H161   1.083       .  S
C162        C163   1.398       .  A
C162        C167   1.413       .  A
C162        H168   1.083       .  S
C163        C164   1.416       .  A
C164        C165   1.400       .  A
C164        H169   1.081       .  S
C165        C166   1.406       .  A
C165        H170   1.079       .  S
C166        C167   1.433       .  A
C167        H171   1.076       .  S
C172        C173   1.408       .  A
C172        C177   1.400       .  A
C172        H178   1.078       .  S
C173        C174   1.431       .  A
C174        C175   1.422       .  A
C174        H179   1.082       .  S
C175        C176   1.408       .  A
C175        H180   1.082       .  S
C176        C177   1.418       .  A
C177        H181   1.084       .  S
C182        C183   1.412       .  A
C182        C187   1.420       .  A
C182        H188   1.083       .  S
C183        C184   1.403       .  A
C184        C185   1.402       .  A
C184        H189   1.084       .  S
C185        C186   1.421       .  A
C185        H190   1.083       .  S
C186        C187   1.418       .  A
C187        H191   1.080       .  S
C192        C193   1.410       .  A
C192        C197   1.422       .  A
C192        H198   1.083       .  S
C193        C194   1.406       .  A
C194        C195   1.401       .  A
C194        H199   1.084       .  S
C195        C196   1.419       .  A
C195        H200   1.082       .  S
C196        C197   1.423       .  A
C197        H201   1.082       .  S
C202        C203   1.403       .  A
C202        C207   1.402       .  A
C202        H208   1.078       .  S
C203        C204   1.429       .  A
C204        C205   1.422       .  A
C204        H209   1.080       .  S
C205        C206   1.407       .  A
C205        H210   1.082       .  S
C206        C207   1.423       .  A
C207        H211   1.083       .  S
C212        C213   1.430       .  A
C212        C217   1.417       .  A
C212        H218   1.082       .  S
C213        C214   1.414       .  A
C214        C215   1.399       .  A
C214        H219   1.077       .  S
C215        C216   1.410       .  A
C215        H220   1.083       .  S
C216        C217   1.405       .  A
C217        H221   1.083       .  S
C222        C223   1.407       .  A
C222        C227   1.410       .  A
C222        H228   1.083       .  S
C223        C224   1.425       .  A
C224        C225   1.404       .  A
C224        H229   1.081       .  S
C225        C226   1.401       .  A
C225        H230   1.078       .  S
C226        C227   1.420       .  A
C227        H231   1.082       .  S
C232        C233   1.432       .  A
C232        C237   1.421       .  A
C232        H238   1.076       .  S
C233        C234   1.419       .  A
C234        C235   1.406       .  A
C234        H239   1.079       .  S
C235        C236   1.410       .  A
C235        H240   1.084       .  S
C236        C237   1.404       .  A
C237        H241   1.083       .  S
C242        C243   1.430       .  A
C242        C247   1.399       .  A
C242        H248   1.080       .  S
C243        C244   1.403       .  A
C244        C245   1.408       .  A
C244        H249   1.083       .  S
C245        C246   1.421       .  A
C245        H250   1.083       .  S
C246        C247   1.397       .  A
C247        H251   1.080       .  S
C252        C253   1.427       .  A
C252        C257   1.410       .  A
C252        H258   1.083       .  S
C253        C254   1.399       .  A
C254        C255   1.400       .  A
C254        H259   1.080       .  S
C255        C256   1.419       .  A
C255        H260   1.082       .  S
C256        C257   1.402       .  A
C257        H261   1.083       .  S
C262        C263   1.425       .  A
C262        C267   1.410       .  A
C262        H268   1.070       .  S
C263        C264   1.409       .  A
C264        C265   1.410       .  A
C264        H269   1.083       .  S
C265        C266   1.417       .  A
C265        H270   1.083       .  S
C266        C267   1.400       .  A
C267        H271   1.083       .  S
C272        C273   1.404       .  A
C272        C277   1.412       .  A
C272        H278   1.081       .  S
C273        C274   1.423       .  A
C274        C275   1.399       .  A
C274        H279   1.080       .  S
C275        C276   1.401       .  A
C275        H280   1.080       .  S
C276        C277   1.430       .  A
C277        H281   1.083       .  S
C282        C283   1.419       .  A
C282        C287   1.418       .  A
C282        H288   1.081       .  S
C283        C284   1.422       .  A
C284        C285   1.396       .  A
C284        H289   1.082       .  S
C285        C286   1.398       .  A
C285        H290   1.084       .  S
C286        C287   1.409       .  A
C287        H291   1.083       .  S
C292        C293   1.420       .  A
C292        C297   1.417       .  A
C292        H298   1.079       .  S
C293        C294   1.422       .  A
C294        C295   1.404       .  A
C294        H299   1.075       .  S
C295        C296   1.401       .  A
C295        H300   1.084       .  S
C296        C297   1.410       .  A
C297        H301   1.083       .  S
C302        C303   1.413       .  A
C302        C307   1.414       .  A
C302        H308   1.081       .  S
C303        C304   1.422       .  A
C304        C305   1.403       .  A
C304        H309   1.083       .  S
C305        C306   1.401       .  A
C305        H310   1.083       .  S
C306        C307   1.410       .  A
C307        H311   1.083       .  S
C312        C313   1.420       .  A
C312        C317   1.419       .  A
C312        H318   1.079       .  S
C313        C314   1.420       .  A
C314        C315   1.404       .  A
C314        H319   1.083       .  S
C315        C316   1.403       .  A
C315        H320   1.083       .  S
C316        C317   1.410       .  A
C317        H321   1.083       .  S
C322        C323   1.420       .  A
C322        C327   1.408       .  A
C322        H328   1.083       .  S
C323        C324   1.415       .  A
C324        C325   1.416       .  A
C324        H329   1.081       .  S
C325        C326   1.412       .  A
C325        H330   1.083       .  S
C326        C327   1.403       .  A
C327        H331   1.083       .  S
C332        C333   1.427       .  A
C332        C337   1.402       .  A
C332        H338   1.071       .  S
C333        C334   1.405       .  A
C334        C335   1.419       .  A
C334        H339   1.083       .  S
C335        C336   1.431       .  A
C335        H340   1.082       .  S
C336        C337   1.395       .  A
C337        H341   1.076       .  S
C342        C343   1.341       .  D
C342        H344   1.086       .  S
C343        H345   1.088       .  S
C346        C347   1.331       .  D
C346        H348   1.080       .  S
C347        H349   1.084       .  S
C350        C351   1.351       .  D
C350        H352   1.084       .  S
C351        H353   1.091       .  S
C354        C355   1.337       .  D
C354        H356   1.081       .  S
C355        H357   1.086       .  S
C358        C359   1.349       .  D
C358        H360   1.079       .  S
C359        H361   1.093       .  S
C362        C363   1.347       .  D
C362        H364   1.085       .  S
C363        H365   1.091       .  S
C366        C367   1.336       .  D
C366        H368   1.085       .  S
C367        H369   1.089       .  S
C370        C371   1.342       .  D
C370        H372   1.086       .  S
C371        H373   1.089       .  S
