geometry optimzed in LAMMPS
_audit_creation_date              2020-12-01 
_audit_creation_method            'lammps2cif' 
_symmetry_space_group_name_H-M    'P1' 
_symmetry_Int_Tables_number       1 
_symmetry_cell_setting            triclinic 
loop_ 
_symmetry_equiv_pos_as_xyz 
  x,y,z 
_cell_length_a                    24.57468865 
_cell_length_b                    24.572777332304728 
_cell_length_c                    33.539047260226205 
_cell_angle_alpha                 89.99983420338165 
_cell_angle_beta                  90.00012957687326 
_cell_angle_gamma                 89.9938337636013 
loop_ 
_atom_site_label 
_atom_site_type_symbol 
_atom_site_fract_x 
_atom_site_fract_y 
_atom_site_fract_z 
_atom_site_charge 
O1          O  0.79538891  0.83696053  0.62263616    -0.71300
O2          O  0.86323623  0.97810714  0.63056373    -0.71300
O3          O  0.85843724  0.89896072  0.57439596    -0.71400
O4          O  0.79841794  0.91631231  0.67873714    -0.71400
O5          O  0.87208171  0.87734570  0.70529112    -0.71400
O6          O  0.93271153  0.86028851  0.60029162    -0.71300
O7          O  0.93665684  0.93857048  0.65701141    -0.71300
O8          O  0.86978199  0.79886346  0.64878176    -0.71400
Ni9        Ni  0.82620555  0.90908427  0.62570438     1.25400
Ni10       Ni  0.90547738  0.86754151  0.65384738     1.25400
C11         C  0.82187093  0.79487628  0.63432378     0.90900
C12         C  0.91170736  0.98093422  0.64458772     0.90800
C13         C  0.90491269  0.87637690  0.57017746     0.90900
C14         C  0.82479122  0.89880681  0.70897055     0.91000
O15         O  0.17045134  0.21187370  0.62286023    -0.71300
O16         O  0.02928598  0.14407637  0.63067542    -0.71300
O17         O  0.09101613  0.20892429  0.67888749    -0.71400
O18         O  0.10853623  0.14878704  0.57458841    -0.71400
O19         O  0.14713255  0.07452039  0.60056189    -0.71400
O20         O  0.12990630  0.13526371  0.70551195    -0.71300
O21         O  0.06873835  0.07065799  0.65719964    -0.71300
O22         O  0.20847964  0.13749051  0.64908112    -0.71400
Ni23       Ni  0.09832376  0.18107856  0.62587216     1.25400
Ni24       Ni  0.13978441  0.10181331  0.65409575     1.25400
C25         C  0.21250396  0.18539228  0.63460279     0.90900
C26         C  0.02641331  0.09561104  0.64470974     0.90800
C27         C  0.10848214  0.18257911  0.70914819     0.90900
C28         C  0.13111585  0.10229724  0.57041585     0.91000
O29         O  0.17036599  0.22604441  0.90474190    -0.71300
O30         O  0.02919983  0.29389149  0.89683716    -0.71300
O31         O  0.09099166  0.22904922  0.84865839    -0.71400
O32         O  0.10837702  0.28911855  0.95298661    -0.71400
O33         O  0.14701354  0.36338865  0.92706346    -0.71400
O34         O  0.12992294  0.30271130  0.82208134    -0.71300
O35         O  0.06870140  0.36730831  0.87036420    -0.71300
O36         O  0.20842775  0.30043363  0.87857086    -0.71400
Ni37       Ni  0.09823438  0.25686174  0.90168569     1.25400
Ni38       Ni  0.13973878  0.33612947  0.87351571     1.25400
C39         C  0.21243724  0.25252448  0.89303958     0.90900
C40         C  0.02635136  0.34236172  0.88280389     0.90800
C41         C  0.10848634  0.25540984  0.81841620     0.90900
C42         C  0.13095388  0.33559885  0.95718931     0.91000
O43         O  0.79560151  0.60132264  0.90453890    -0.71300
O44         O  0.86324345  0.46004897  0.89670791    -0.71300
O45         O  0.85863835  0.53931469  0.95279325    -0.71400
O46         O  0.79843630  0.52187038  0.84850951    -0.71400
O47         O  0.87211634  0.56067247  0.82186467    -0.71400
O48         O  0.93292898  0.57781544  0.92680022    -0.71300
O49         O  0.93667983  0.49941410  0.87016120    -0.71300
O50         O  0.87000742  0.63925734  0.87830069    -0.71400
Ni51       Ni  0.82631460  0.52914376  0.90151781     1.25400
Ni52       Ni  0.90560237  0.57050626  0.87327330     1.25400
C53         C  0.82212314  0.64334748  0.89279580     0.90900
C54         C  0.91169929  0.45711668  0.88266569     0.90800
C55         C  0.90515209  0.56183300  0.95695356     0.90900
C56         C  0.82478100  0.53930416  0.81824089     0.91000
O57         O  0.40623647  0.22610871  0.62292738    -0.71300
O58         O  0.54738175  0.29393644  0.63080235    -0.71300
O59         O  0.48557692  0.22918576  0.67902210    -0.71400
O60         O  0.46824032  0.28910359  0.57464388    -0.71400
O61         O  0.42959652  0.36342186  0.60049995    -0.71400
O62         O  0.44662807  0.30289113  0.70553386    -0.71300
O63         O  0.50787452  0.36740191  0.65721271    -0.71300
O64         O  0.36815594  0.30054436  0.64902687    -0.71400
Ni65       Ni  0.47835707  0.25691800  0.62597210     1.25400
Ni66       Ni  0.43683899  0.33623615  0.65407056     1.25400
C67         C  0.36416157  0.25260909  0.63460439     0.90900
C68         C  0.55022376  0.34242850  0.64479014     0.90800
C69         C  0.46806662  0.25559198  0.70923937     0.90900
C70         C  0.44568187  0.33559098  0.57040044     0.91000
O71         O  0.78116184  0.60112157  0.62263826    -0.71300
O72         O  0.71334989  0.45996658  0.63061678    -0.71300
O73         O  0.71806715  0.53911423  0.57443748    -0.71400
O74         O  0.77821166  0.52178333  0.67874883    -0.71400
O75         O  0.70456942  0.56073855  0.70534259    -0.71400
O76         O  0.64381835  0.57778013  0.60037566    -0.71300
O77         O  0.63994958  0.49949137  0.65710368    -0.71300
O78         O  0.70679313  0.63920971  0.64882772    -0.71400
Ni79       Ni  0.75035998  0.52899519  0.62572981     1.25400
Ni80       Ni  0.67111301  0.57052736  0.65391728     1.25400
C81         C  0.75468786  0.64320230  0.63434138     0.90900
C82         C  0.66489572  0.45713083  0.64467005     0.90800
C83         C  0.67159158  0.56170922  0.57024367     0.90900
C84         C  0.75187489  0.53930226  0.70899606     0.91000
O85         O  0.78151606  0.83716277  0.90456793    -0.71300
O86         O  0.71367361  0.97834883  0.89672930    -0.71300
O87         O  0.71850755  0.89916169  0.95286277    -0.71400
O88         O  0.77845643  0.91653918  0.84849758    -0.71400
O89         O  0.70476586  0.87760889  0.82196798    -0.71400
O90         O  0.64420311  0.86054480  0.92698321    -0.71300
O91         O  0.64023073  0.93885836  0.87029301    -0.71300
O92         O  0.70709172  0.79911162  0.87844843    -0.71400
Ni93       Ni  0.75070385  0.90930347  0.90154209     1.25400
Ni94       Ni  0.67140300  0.86781019  0.87342025     1.25400
C95         C  0.75502214  0.79509543  0.89287091     0.90900
C96         C  0.66518315  0.98120333  0.88273991     0.90800
C97         C  0.67202329  0.87660741  0.95709202     0.90900
C98         C  0.75207239  0.89901683  0.81827516     0.91000
O99         O  0.40620154  0.21192446  0.90483588    -0.71300
O100        O  0.54746029  0.14426800  0.89692135    -0.71300
O101        O  0.48560300  0.20911149  0.84877778    -0.71400
O102        O  0.46824463  0.14885636  0.95304911    -0.71400
O103        O  0.42971747  0.07457383  0.92705786    -0.71400
O104        O  0.44677813  0.13543860  0.82213306    -0.71300
O105        O  0.50806738  0.07084113  0.87037755    -0.71300
O106        O  0.36824790  0.13752508  0.87859622    -0.71400
Ni107      Ni  0.47837402  0.18120385  0.90177888     1.25400
Ni108      Ni  0.43698581  0.10192488  0.87353456     1.25400
C109        C  0.36417138  0.18541317  0.89309179     0.90900
C110        C  0.55037906  0.09582025  0.88285312     0.90800
C111        C  0.46814145  0.18277908  0.81851238     0.90900
C112        C  0.44572236  0.10234285  0.95720949     0.91000
O113        O  0.29563527  0.33669416  0.40469401    -0.71300
O114        O  0.36330211  0.47793746  0.39677804    -0.71300
O115        O  0.29856404  0.41605496  0.34859818    -0.71400
O116        O  0.35860183  0.39877002  0.45294070    -0.71400
O117        O  0.43292710  0.36019625  0.42704623    -0.71400
O118        O  0.37227815  0.37718639  0.32204335    -0.71300
O119        O  0.43677512  0.43850103  0.37033080    -0.71300
O120        O  0.37007596  0.29869239  0.37854910    -0.71400
Ni121      Ni  0.32636056  0.40886066  0.40163127     1.25400
Ni122      Ni  0.40568586  0.36742382  0.37348878     1.25400
C123        C  0.32216722  0.29464143  0.39300477     0.90900
C124        C  0.41177179  0.48083303  0.38275743     0.90800
C125        C  0.32495529  0.39857674  0.31836477     0.90900
C126        C  0.40510199  0.37623722  0.45716097     0.91000
O127        O  0.67029916  0.71204406  0.40455617    -0.71300
O128        O  0.52916730  0.64414484  0.39668224    -0.71300
O129        O  0.60833850  0.64896488  0.45282653    -0.71400
O130        O  0.59094243  0.70899193  0.34848104    -0.71400
O131        O  0.62991993  0.63533085  0.32192644    -0.71400
O132        O  0.64699939  0.57468926  0.42691969    -0.71300
O133        O  0.56870197  0.57073099  0.37021961    -0.71300
O134        O  0.70839645  0.63764748  0.37841193    -0.71400
Ni135      Ni  0.59818395  0.68119999  0.40151592     1.25400
Ni136      Ni  0.63972587  0.60193016  0.37336631     1.25400
C137        C  0.71238055  0.68557757  0.39284513     0.90900
C138        C  0.52634358  0.59566158  0.38267130     0.90800
C139        C  0.63091972  0.60248256  0.45703943     0.90900
C140        C  0.60849472  0.68263959  0.31825081     0.91000
O141        O  0.90662004  0.71212230  0.12259746    -0.71300
O142        O  0.04771034  0.64414924  0.13055162    -0.71300
O143        O  0.96858599  0.64900634  0.07436091    -0.71400
O144        O  0.98592737  0.70902516  0.17871285    -0.71400
O145        O  0.94690822  0.63538453  0.20525336    -0.71400
O146        O  0.92986458  0.57476087  0.10025361    -0.71300
O147        O  0.00812587  0.57075383  0.15699076    -0.71300
O148        O  0.86847330  0.63775251  0.14873395    -0.71400
Ni149      Ni  0.97871519  0.68123754  0.12567544     1.25400
Ni150      Ni  0.93711880  0.60199325  0.15380951     1.25400
C151        C  0.86452210  0.68567935  0.13429049     0.90900
C152        C  0.05050722  0.59567483  0.14458089     0.90800
C153        C  0.94596687  0.60254850  0.07013935     0.90900
C154        C  0.96836454  0.68267322  0.20893842     0.91000
O155        O  0.28130308  0.33677402  0.12277452    -0.71300
O156        O  0.21361270  0.47800920  0.13068817    -0.71300
O157        O  0.27843939  0.41615256  0.17884772    -0.71400
O158        O  0.21824911  0.39881599  0.07455346    -0.71400
O159        O  0.14396727  0.36026256  0.10051874    -0.71400
O160        O  0.20477064  0.37729308  0.20546526    -0.71300
O161        O  0.14018722  0.43859004  0.15720909    -0.71300
O162        O  0.20690320  0.29878809  0.14898400    -0.71400
Ni163      Ni  0.25056538  0.40893591  0.12583558     1.25400
Ni164      Ni  0.17128741  0.36751513  0.15405105     1.25400
C165        C  0.25479578  0.29473255  0.13450163     0.90900
C166        C  0.16515531  0.48090815  0.14473042     0.90800
C167        C  0.25210198  0.39866547  0.20910287     0.90900
C168        C  0.17174246  0.37628947  0.07037720     0.91000
O169        O  0.29545758  0.10094450  0.12286508    -0.71300
O170        O  0.36334207  0.95980158  0.13073552    -0.71300
O171        O  0.29850894  0.02155969  0.17894231    -0.71400
O172        O  0.35852504  0.03898441  0.07460200    -0.71400
O173        O  0.43278905  0.07763915  0.10051407    -0.71400
O174        O  0.37216253  0.06051429  0.20550769    -0.71300
O175        O  0.43675228  0.99932079  0.15720060    -0.71300
O176        O  0.36984066  0.13902935  0.14902308    -0.71400
Ni177      Ni  0.32629351  0.02882309  0.12590851     1.25400
Ni178      Ni  0.40555450  0.07035008  0.15406662     1.25400
C179        C  0.32193149  0.14302312  0.13456043     0.90900
C180        C  0.41181929  0.95696929  0.14474660     0.90800
C181        C  0.32487434  0.03905730  0.20918099     0.90900
C182        C  0.40499825  0.06156846  0.07039282     0.91000
O183        O  0.67081403  0.72634171  0.12266694    -0.71300
O184        O  0.52956717  0.79397339  0.13057729    -0.71300
O185        O  0.60878173  0.78939169  0.07445403    -0.71400
O186        O  0.59140024  0.72915954  0.17872672    -0.71400
O187        O  0.63021008  0.80283764  0.20537555    -0.71400
O188        O  0.64731089  0.86367659  0.10044077    -0.71300
O189        O  0.56894902  0.86741342  0.15711359    -0.71300
O190        O  0.70876761  0.80073981  0.14891064    -0.71400
Ni191      Ni  0.59864783  0.75705237  0.12572483     1.25400
Ni192      Ni  0.64002966  0.83633745  0.15396795     1.25400
C193        C  0.71284313  0.75286187  0.13439667     0.90900
C194        C  0.52664373  0.84241786  0.14464476     0.90800
C195        C  0.63130916  0.83590190  0.07029063     0.90900
C196        C  0.60881394  0.75551081  0.20899746     0.91000
O197        O  0.90611152  0.72617850  0.40449309    -0.71300
O198        O  0.04737920  0.79380081  0.39672953    -0.71300
O199        O  0.96810202  0.78915070  0.45279174    -0.71400
O200        O  0.98558644  0.72905865  0.34848271    -0.71400
O201        O  0.94680000  0.80278211  0.32187070    -0.71400
O202        O  0.92961338  0.86348576  0.42683668    -0.71300
O203        O  0.00802895  0.86728179  0.37021842    -0.71300
O204        O  0.86818754  0.80062468  0.37828926    -0.71400
Ni205      Ni  0.97828729  0.75687999  0.40150313     1.25400
Ni206      Ni  0.93693918  0.83621415  0.37329625     1.25400
C207        C  0.86409205  0.75272370  0.39276057     0.90900
C208        C  0.05031855  0.84227482  0.38271574     0.90800
C209        C  0.94559416  0.83567177  0.45697459     0.90900
C210        C  0.96818280  0.75544903  0.31822470     0.91000
O211        O  0.28147363  0.10084596  0.40477618    -0.71300
O212        O  0.21357575  0.95970391  0.39690299    -0.71300
O213        O  0.27844379  0.02145217  0.34871167    -0.71400
O214        O  0.21837726  0.03890707  0.45303758    -0.71400
O215        O  0.14412727  0.07757747  0.42710475    -0.71400
O216        O  0.20480209  0.06042227  0.32212845    -0.71300
O217        O  0.14018208  0.99924330  0.37041962    -0.71300
O218        O  0.20710280  0.13894289  0.37859835    -0.71400
Ni219      Ni  0.25063061  0.02872528  0.40173789     1.25400
Ni220      Ni  0.17138508  0.07026875  0.37355891     1.25400
C221        C  0.25501443  0.14292990  0.39305711     0.90900
C222        C  0.16510794  0.95687940  0.38286947     0.90800
C223        C  0.25209892  0.03897089  0.31846798     0.90900
C224        C  0.17190688  0.06151184  0.45723490     0.91000
C225        C  0.10111826  0.87138661  0.38230292    -0.10100
C226        C  0.13591658  0.90612443  0.38235696    -0.11700
C227        C  0.29978938  0.03599849  0.24784049    -0.10100
C228        C  0.27721926  0.03596407  0.27981848    -0.11700
C229        C  0.47583463  0.87150263  0.14516580    -0.10100
C230        C  0.44102045  0.90622387  0.14520195    -0.11700
C231        C  0.29771326  0.19615504  0.13193783    -0.10100
C232        C  0.27897034  0.24157768  0.13191389    -0.11700
C233        C  0.81141811  0.70995952  0.13171226    -0.10100
C234        C  0.76600520  0.72871994  0.13175546    -0.11700
C235        C  0.97126747  0.73034726  0.27957244    -0.10100
C236        C  0.97132916  0.70777776  0.24759430    -0.11700
C237        C  0.10125633  0.56647677  0.14513022    -0.10100
C238        C  0.13601208  0.53169264  0.14518391    -0.11700
C239        C  0.76550148  0.70983470  0.39539664    -0.10100
C240        C  0.81091920  0.72858739  0.39535873    -0.11700
C241        C  0.60557847  0.70777540  0.27960333    -0.10100
C242        C  0.60569899  0.73037673  0.24763724    -0.11700
C243        C  0.29800502  0.24147962  0.39561712    -0.10100
C244        C  0.27925533  0.19605834  0.39563614    -0.11700
C245        C  0.29986160  0.40159227  0.27970672    -0.10100
C246        C  0.27726504  0.40162910  0.24773878    -0.11700
C247        C  0.47560157  0.56644965  0.38221176    -0.10100
C248        C  0.44087608  0.53163869  0.38224181    -0.11700
C249        C  0.43641609  0.08240286  0.99683830    -0.10100
C250        C  0.42487673  0.07085911  0.03074552    -0.11700
C251        C  0.65216113  0.86734681  0.99674728    -0.10100
C252        C  0.64062420  0.85582769  0.03065941    -0.11700
C253        C  0.63598846  0.03196568  0.88229893    -0.10100
C254        C  0.60118487  0.06670735  0.88233882    -0.11700
C255        C  0.64019075  0.58259060  0.49668902    -0.10100
C256        C  0.65170419  0.57103091  0.53059984    -0.11700
C257        C  0.43644520  0.35544369  0.53073833    -0.10100
C258        C  0.42496171  0.36696013  0.49681551    -0.11700
C259        C  0.47112494  0.20795367  0.77988213    -0.10100
C260        C  0.47109339  0.23053660  0.74790944    -0.11700
C261        C  0.63574351  0.40636289  0.64521248    -0.10100
C262        C  0.60098271  0.37159381  0.64525472    -0.11700
C263        C  0.77924561  0.74195318  0.89543147    -0.10100
C264        C  0.79798063  0.69652267  0.89540224    -0.11700
C265        C  0.93665949  0.58268793  0.03048697    -0.10100
C266        C  0.92509287  0.57115114  0.99658237    -0.11700
C267        C  0.79962067  0.53628615  0.77960488    -0.10100
C268        C  0.77701161  0.53629133  0.74764069    -0.11700
C269        C  0.26557790  0.22831259  0.89565760    -0.10100
C270        C  0.31100589  0.20957690  0.89567751    -0.11700
C271        C  0.14025771  0.35548135  0.99683450    -0.10100
C272        C  0.15181224  0.36700749  0.03074250    -0.11700
C273        C  0.97558249  0.37153233  0.88228328    -0.10100
C274        C  0.94082615  0.40631855  0.88223434    -0.11700
C275        C  0.31103821  0.22838034  0.63201818    -0.10100
C276        C  0.26563543  0.20960373  0.63202006    -0.11700
C277        C  0.14046187  0.08238563  0.53078197    -0.10100
C278        C  0.15201865  0.07083234  0.49687816    -0.11700
C279        C  0.10544359  0.20771828  0.74779012    -0.10100
C280        C  0.10545157  0.23030399  0.77976277    -0.11700
C281        C  0.79765323  0.74174728  0.63171142    -0.10100
C282        C  0.77889807  0.69633319  0.63171594    -0.11700
C283        C  0.93629530  0.85557799  0.49661204    -0.10100
C284        C  0.92477901  0.86710333  0.53052619    -0.11700
C285        C  0.77716321  0.90196218  0.77961476    -0.10100
C286        C  0.79971900  0.90188156  0.74763227    -0.11700
C287        C  0.94087446  0.03169520  0.64511243    -0.10100
C288        C  0.97564799  0.06645251  0.64515444    -0.11700
loop_ 
_geom_bond_atom_site_label_1 
_geom_bond_atom_site_label_2 
_geom_bond_distance 
_geom_bond_site_symmetry_2 
_ccdc_geom_bond_type 
O1           Ni9   1.930       .  S
O1           C11   1.283       .  A
O2           Ni9   1.932       .  S
O2           C12   1.283       .  A
O3           Ni9   1.911       .  S
O3           C13   1.278       .  A
O4           Ni9   1.914       .  S
O4           C14   1.278       .  A
O5          Ni10   1.926       .  S
O5           C14   1.282       .  A
O6          Ni10   1.925       .  S
O6           C13   1.282       .  A
O7          Ni10   1.909       .  S
O7           C12   1.278       .  A
O8          Ni10   1.910       .  S
O8           C11   1.277       .  A
Ni9         Ni10   2.393       .  S
C11         C281   1.438       .  S
C12         C287   1.439   1_565  S
C13         C284   1.435       .  S
C14         C286   1.438       .  S
O15         Ni23   1.930       .  S
O15          C25   1.283       .  A
O16         Ni23   1.932       .  S
O16          C26   1.283       .  A
O17         Ni23   1.914       .  S
O17          C27   1.278       .  A
O18         Ni23   1.911       .  S
O18          C28   1.278       .  A
O19         Ni24   1.925       .  S
O19          C28   1.282       .  A
O20         Ni24   1.926       .  S
O20          C27   1.282       .  A
O21         Ni24   1.909       .  S
O21          C26   1.278       .  A
O22         Ni24   1.910       .  S
O22          C25   1.277       .  A
Ni23        Ni24   2.393       .  S
C25         C276   1.438       .  S
C26         C288   1.439   1_455  S
C27         C279   1.438       .  S
C28         C277   1.435       .  S
O29         Ni37   1.930       .  S
O29          C39   1.283       .  A
O30         Ni37   1.932       .  S
O30          C40   1.283       .  A
O31         Ni37   1.914       .  S
O31          C41   1.278       .  A
O32         Ni37   1.911       .  S
O32          C42   1.278       .  A
O33         Ni38   1.925       .  S
O33          C42   1.282       .  A
O34         Ni38   1.926       .  S
O34          C41   1.282       .  A
O35         Ni38   1.909       .  S
O35          C40   1.278       .  A
O36         Ni38   1.910       .  S
O36          C39   1.277       .  A
Ni37        Ni38   2.393       .  S
C39         C269   1.438       .  S
C40         C273   1.439   1_455  S
C41         C280   1.438       .  S
C42         C271   1.435       .  S
O43         Ni51   1.930       .  S
O43          C53   1.283       .  A
O44         Ni51   1.932       .  S
O44          C54   1.283       .  A
O45         Ni51   1.911       .  S
O45          C55   1.278       .  A
O46         Ni51   1.914       .  S
O46          C56   1.278       .  A
O47         Ni52   1.926       .  S
O47          C56   1.282       .  A
O48         Ni52   1.925       .  S
O48          C55   1.282       .  A
O49         Ni52   1.909       .  S
O49          C54   1.278       .  A
O50         Ni52   1.910       .  S
O50          C53   1.277       .  A
Ni51        Ni52   2.393       .  S
C53         C264   1.438       .  S
C54         C274   1.439       .  S
C55         C266   1.435       .  S
C56         C267   1.438       .  S
O57         Ni65   1.930       .  S
O57          C67   1.283       .  A
O58         Ni65   1.932       .  S
O58          C68   1.283       .  A
O59         Ni65   1.914       .  S
O59          C69   1.278       .  A
O60         Ni65   1.911       .  S
O60          C70   1.278       .  A
O61         Ni66   1.925       .  S
O61          C70   1.282       .  A
O62         Ni66   1.926       .  S
O62          C69   1.282       .  A
O63         Ni66   1.909       .  S
O63          C68   1.278       .  A
O64         Ni66   1.910       .  S
O64          C67   1.277       .  A
Ni65        Ni66   2.393       .  S
C67         C275   1.438       .  S
C68         C262   1.439       .  S
C69         C260   1.438       .  S
C70         C257   1.435       .  S
O71         Ni79   1.930       .  S
O71          C81   1.283       .  A
O72         Ni79   1.932       .  S
O72          C82   1.283       .  A
O73         Ni79   1.911       .  S
O73          C83   1.278       .  A
O74         Ni79   1.914       .  S
O74          C84   1.278       .  A
O75         Ni80   1.926       .  S
O75          C84   1.282       .  A
O76         Ni80   1.925       .  S
O76          C83   1.282       .  A
O77         Ni80   1.909       .  S
O77          C82   1.278       .  A
O78         Ni80   1.910       .  S
O78          C81   1.277       .  A
Ni79        Ni80   2.393       .  S
C81         C282   1.438       .  S
C82         C261   1.439       .  S
C83         C256   1.435       .  S
C84         C268   1.438       .  S
O85         Ni93   1.930       .  S
O85          C95   1.283       .  A
O86         Ni93   1.932       .  S
O86          C96   1.283       .  A
O87         Ni93   1.911       .  S
O87          C97   1.278       .  A
O88         Ni93   1.914       .  S
O88          C98   1.278       .  A
O89         Ni94   1.926       .  S
O89          C98   1.282       .  A
O90         Ni94   1.925       .  S
O90          C97   1.282       .  A
O91         Ni94   1.909       .  S
O91          C96   1.278       .  A
O92         Ni94   1.910       .  S
O92          C95   1.277       .  A
Ni93        Ni94   2.393       .  S
C95         C263   1.438       .  S
C96         C253   1.439   1_565  S
C97         C251   1.435       .  S
C98         C285   1.438       .  S
O99        Ni107   1.930       .  S
O99         C109   1.283       .  A
O100       Ni107   1.932       .  S
O100        C110   1.283       .  A
O101       Ni107   1.914       .  S
O101        C111   1.278       .  A
O102       Ni107   1.911       .  S
O102        C112   1.278       .  A
O103       Ni108   1.925       .  S
O103        C112   1.282       .  A
O104       Ni108   1.926       .  S
O104        C111   1.282       .  A
O105       Ni108   1.909       .  S
O105        C110   1.278       .  A
O106       Ni108   1.910       .  S
O106        C109   1.277       .  A
Ni107      Ni108   2.393       .  S
C109        C270   1.438       .  S
C110        C254   1.439       .  S
C111        C259   1.438       .  S
C112        C249   1.435       .  S
O113       Ni121   1.930       .  S
O113        C123   1.283       .  A
O114       Ni121   1.932       .  S
O114        C124   1.283       .  A
O115       Ni121   1.914       .  S
O115        C125   1.278       .  A
O116       Ni121   1.911       .  S
O116        C126   1.278       .  A
O117       Ni122   1.925       .  S
O117        C126   1.282       .  A
O118       Ni122   1.926       .  S
O118        C125   1.282       .  A
O119       Ni122   1.909       .  S
O119        C124   1.278       .  A
O120       Ni122   1.910       .  S
O120        C123   1.277       .  A
Ni121      Ni122   2.393       .  S
C123        C243   1.438       .  S
C124        C248   1.439       .  S
C125        C245   1.438       .  S
C126        C258   1.435       .  S
O127       Ni135   1.930       .  S
O127        C137   1.283       .  A
O128       Ni135   1.932       .  S
O128        C138   1.283       .  A
O129       Ni135   1.911       .  S
O129        C139   1.278       .  A
O130       Ni135   1.914       .  S
O130        C140   1.278       .  A
O131       Ni136   1.926       .  S
O131        C140   1.282       .  A
O132       Ni136   1.925       .  S
O132        C139   1.282       .  A
O133       Ni136   1.909       .  S
O133        C138   1.278       .  A
O134       Ni136   1.910       .  S
O134        C137   1.277       .  A
Ni135      Ni136   2.393       .  S
C137        C239   1.438       .  S
C138        C247   1.439       .  S
C139        C255   1.435       .  S
C140        C241   1.438       .  S
O141       Ni149   1.930       .  S
O141        C151   1.283       .  A
O142       Ni149   1.932   1_455  S
O142        C152   1.283       .  A
O143       Ni149   1.911       .  S
O143        C153   1.278       .  A
O144       Ni149   1.914       .  S
O144        C154   1.278       .  A
O145       Ni150   1.926       .  S
O145        C154   1.282       .  A
O146       Ni150   1.925       .  S
O146        C153   1.282       .  A
O147       Ni150   1.909   1_455  S
O147        C152   1.278       .  A
O148       Ni150   1.910       .  S
O148        C151   1.277       .  A
Ni149      Ni150   2.393       .  S
C151        C233   1.437       .  S
C152        C237   1.439       .  S
C153        C265   1.435       .  S
C154        C236   1.438       .  S
O155       Ni163   1.930       .  S
O155        C165   1.283       .  A
O156       Ni163   1.932       .  S
O156        C166   1.283       .  A
O157       Ni163   1.914       .  S
O157        C167   1.278       .  A
O158       Ni163   1.911       .  S
O158        C168   1.278       .  A
O159       Ni164   1.925       .  S
O159        C168   1.282       .  A
O160       Ni164   1.926       .  S
O160        C167   1.282       .  A
O161       Ni164   1.909       .  S
O161        C166   1.278       .  A
O162       Ni164   1.910       .  S
O162        C165   1.277       .  A
Ni163      Ni164   2.393       .  S
C165        C232   1.437       .  S
C166        C238   1.439       .  S
C167        C246   1.438       .  S
C168        C272   1.435       .  S
O169       Ni177   1.930       .  S
O169        C179   1.283       .  A
O170       Ni177   1.932   1_565  S
O170        C180   1.283       .  A
O171       Ni177   1.914       .  S
O171        C181   1.278       .  A
O172       Ni177   1.911       .  S
O172        C182   1.278       .  A
O173       Ni178   1.925       .  S
O173        C182   1.282       .  A
O174       Ni178   1.926       .  S
O174        C181   1.282       .  A
O175       Ni178   1.909   1_565  S
O175        C180   1.278       .  A
O176       Ni178   1.910       .  S
O176        C179   1.277       .  A
Ni177      Ni178   2.393       .  S
C179        C231   1.437       .  S
C180        C230   1.439       .  S
C181        C227   1.438       .  S
C182        C250   1.435       .  S
O183       Ni191   1.930       .  S
O183        C193   1.283       .  A
O184       Ni191   1.932       .  S
O184        C194   1.283       .  A
O185       Ni191   1.911       .  S
O185        C195   1.278       .  A
O186       Ni191   1.914       .  S
O186        C196   1.278       .  A
O187       Ni192   1.926       .  S
O187        C196   1.282       .  A
O188       Ni192   1.925       .  S
O188        C195   1.282       .  A
O189       Ni192   1.909       .  S
O189        C194   1.278       .  A
O190       Ni192   1.910       .  S
O190        C193   1.277       .  A
Ni191      Ni192   2.393       .  S
C193        C234   1.437       .  S
C194        C229   1.439       .  S
C195        C252   1.435       .  S
C196        C242   1.438       .  S
O197       Ni205   1.930       .  S
O197        C207   1.283       .  A
O198       Ni205   1.932   1_455  S
O198        C208   1.283       .  A
O199       Ni205   1.911       .  S
O199        C209   1.278       .  A
O200       Ni205   1.914       .  S
O200        C210   1.278       .  A
O201       Ni206   1.926       .  S
O201        C210   1.282       .  A
O202       Ni206   1.925       .  S
O202        C209   1.282       .  A
O203       Ni206   1.909   1_455  S
O203        C208   1.278       .  A
O204       Ni206   1.910       .  S
O204        C207   1.277       .  A
Ni205      Ni206   2.393       .  S
C207        C240   1.438       .  S
C208        C225   1.439       .  S
C209        C283   1.435       .  S
C210        C235   1.438       .  S
O211       Ni219   1.930       .  S
O211        C221   1.283       .  A
O212       Ni219   1.932   1_565  S
O212        C222   1.283       .  A
O213       Ni219   1.914       .  S
O213        C223   1.278       .  A
O214       Ni219   1.911       .  S
O214        C224   1.278       .  A
O215       Ni220   1.925       .  S
O215        C224   1.282       .  A
O216       Ni220   1.926       .  S
O216        C223   1.282       .  A
O217       Ni220   1.909   1_565  S
O217        C222   1.278       .  A
O218       Ni220   1.910       .  S
O218        C221   1.277       .  A
Ni219      Ni220   2.393       .  S
C221        C244   1.438       .  S
C222        C226   1.439       .  S
C223        C228   1.438       .  S
C224        C278   1.435       .  S
C225        C226   1.208       .  T
C227        C228   1.207       .  T
C229        C230   1.208       .  T
C231        C232   1.207       .  T
C233        C234   1.207       .  T
C235        C236   1.207       .  T
C237        C238   1.208       .  T
C239        C240   1.208       .  T
C241        C242   1.207       .  T
C243        C244   1.208       .  T
C245        C246   1.207       .  T
C247        C248   1.208       .  T
C249        C250   1.206   1_556  T
C251        C252   1.206   1_556  T
C253        C254   1.208       .  T
C255        C256   1.206       .  T
C257        C258   1.206       .  T
C259        C260   1.207       .  T
C261        C262   1.208       .  T
C263        C264   1.208       .  T
C265        C266   1.206   1_554  T
C267        C268   1.207       .  T
C269        C270   1.208       .  T
C271        C272   1.206   1_556  T
C273        C274   1.208       .  T
C275        C276   1.207       .  T
C277        C278   1.206       .  T
C279        C280   1.207       .  T
C281        C282   1.207       .  T
C283        C284   1.206       .  T
C285        C286   1.207       .  T
C287        C288   1.208       .  T
