geometry optimzed in LAMMPS
_audit_creation_date              2020-12-01 
_audit_creation_method            'lammps2cif' 
_symmetry_space_group_name_H-M    'P1' 
_symmetry_Int_Tables_number       1 
_symmetry_cell_setting            triclinic 
loop_ 
_symmetry_equiv_pos_as_xyz 
  x,y,z 
_cell_length_a                    31.18149583 
_cell_length_b                    31.18630366576896 
_cell_length_c                    46.0123100862943 
_cell_angle_alpha                 90.00178666760425 
_cell_angle_beta                  90.00302039816465 
_cell_angle_gamma                 89.99238046671216 
loop_ 
_atom_site_label 
_atom_site_type_symbol 
_atom_site_fract_x 
_atom_site_fract_y 
_atom_site_fract_z 
_atom_site_charge 
O1          O  0.43804417  0.09605474  0.12470125    -0.71000
O2          O  0.39143593  0.21667763  0.13056962    -0.71900
O3          O  0.43405930  0.15909961  0.16932221    -0.60500
O4          O  0.39655680  0.15371471  0.08600706    -0.69000
O5          O  0.33320188  0.12758709  0.09922512    -0.68500
O6          O  0.37113722  0.13285491  0.18333654    -0.59800
O7          O  0.32862604  0.18977165  0.14429504    -0.72300
O8          O  0.37462343  0.07051065  0.13835167    -0.71100
Cu9        Cu  0.41724901  0.15734116  0.12719440     1.04600
Cu10       Cu  0.34967487  0.12933445  0.14182558     1.04300
C11         C  0.41338111  0.06447657  0.13055970     0.95200
C12         C  0.35233309  0.22181571  0.13813629     0.94400
C13         C  0.40877110  0.14651318  0.18937815     0.86500
C14         C  0.35933664  0.13975262  0.07946333     0.92800
O15         O  0.52131836  0.79203242  0.18324443    -0.71000
O16         O  0.55946754  0.79746207  0.09916537    -0.71900
O17         O  0.51791221  0.85444793  0.13829766    -0.60500
O18         O  0.56398108  0.73521114  0.14420338    -0.69000
O19         O  0.50122549  0.70828117  0.13038189    -0.68500
O20         O  0.45454107  0.82888629  0.12455199    -0.59800
O21         O  0.49616114  0.77131304  0.08585815    -0.72300
O22         O  0.45845290  0.76576729  0.16912950    -0.71100
Cu23       Cu  0.54289048  0.79563640  0.14175422     1.04600
Cu24       Cu  0.47537313  0.76760742  0.12702100     1.04300
C25         C  0.48367726  0.77833686  0.18922982     0.95200
C26         C  0.53338682  0.78530705  0.07936360     0.94400
C27         C  0.47916890  0.86047054  0.13046743     0.86500
C28         C  0.54031361  0.70315855  0.13799285     0.92800
O29         O  0.32867502  0.18975809  0.87132916    -0.71000
O30         O  0.37460549  0.07046797  0.87723292    -0.71900
O31         O  0.33321760  0.12754703  0.91637841    -0.60500
O32         O  0.37115063  0.13284200  0.83226953    -0.64200
O33         O  0.43408789  0.15904466  0.84629422    -0.68500
O34         O  0.39658939  0.15362885  0.92960648    -0.59800
O35         O  0.43804214  0.09596919  0.89089196    -0.72300
O36         O  0.39150071  0.21662048  0.88506653    -0.71100
Cu37       Cu  0.34968939  0.12930807  0.87377889     1.04600
Cu38       Cu  0.41728060  0.15726805  0.88842108     1.04300
C39         C  0.35239978  0.22178467  0.87750124     0.95200
C40         C  0.41336268  0.06440836  0.88501946     0.94400
C41         C  0.35935913  0.13969130  0.93614454     0.86500
C42         C  0.40879132  0.14648389  0.82623336     0.92800
O43         O  0.45850861  0.76571350  0.84627230    -0.71000
O44         O  0.49620200  0.77124764  0.92954999    -0.71900
O45         O  0.45455967  0.82881102  0.89086415    -0.60500
O46         O  0.50130330  0.70823357  0.88501523    -0.69000
O47         O  0.56404860  0.73519680  0.87120763    -0.68500
O48         O  0.51791948  0.85441004  0.87713181    -0.59800
O49         O  0.55949713  0.79743290  0.91625638    -0.72300
O50         O  0.52136351  0.79201406  0.83217158    -0.71100
Cu51       Cu  0.47542194  0.76754499  0.88838361     1.04600
Cu52       Cu  0.54292773  0.79561210  0.87366518     1.04300
C53         C  0.48372878  0.77830572  0.82617841     0.95200
C54         C  0.53341829  0.78526207  0.93605238     0.94400
C55         C  0.47917343  0.86040995  0.88496165     0.86500
C56         C  0.54039588  0.70313156  0.87741147     0.92800
O57         O  0.43395486  0.76554872  0.66922841    -0.71000
O58         O  0.39640815  0.77092774  0.58591522    -0.71900
O59         O  0.43789201  0.82859528  0.62460853    -0.60500
O60         O  0.39131617  0.70796624  0.63048126    -0.69000
O61         O  0.32850932  0.73487767  0.64422334    -0.68500
O62         O  0.37446831  0.85413368  0.63827266    -0.59800
O63         O  0.33305067  0.79705285  0.59914278    -0.72300
O64         O  0.37103769  0.79179512  0.68326333    -0.71100
Cu65       Cu  0.41711685  0.76730500  0.62710215     1.04600
Cu66       Cu  0.34954382  0.79531109  0.64174927     1.04300
C67         C  0.40868223  0.77814049  0.68929455     0.95200
C68         C  0.35918174  0.78488598  0.57937470     0.94400
C69         C  0.41322136  0.86017121  0.63047709     0.86500
C70         C  0.35221724  0.70283155  0.63805655     0.92800
O71         O  0.56388244  0.18934154  0.64428216    -0.71000
O72         O  0.51773125  0.07014932  0.63836862    -0.71900
O73         O  0.55931077  0.12709972  0.59924730    -0.60500
O74         O  0.52120942  0.13255337  0.68331711    -0.69000
O75         O  0.45835047  0.15887815  0.66922325    -0.68500
O76         O  0.49601747  0.15331199  0.58595088    -0.59800
O77         O  0.45437181  0.09577308  0.62463734    -0.72300
O78         O  0.50113709  0.21633098  0.63047782    -0.71100
Cu79       Cu  0.54275286  0.12893584  0.64183020     1.04600
Cu80       Cu  0.47524611  0.15703069  0.62711376     1.04300
C81         C  0.54023186  0.22141636  0.63808087     0.95200
C82         C  0.47898311  0.06416449  0.63053889     0.94400
C83         C  0.53323134  0.13928058  0.57945245     0.86500
C84         C  0.48358330  0.14628470  0.68931288     0.92800
O85         O  0.37100410  0.79176393  0.33214527    -0.71000
O86         O  0.33303694  0.79704528  0.41626652    -0.71900
O87         O  0.37445919  0.85411060  0.37713478    -0.60500
O88         O  0.32847194  0.73486053  0.37119274    -0.69000
O89         O  0.39127670  0.70794120  0.38493553    -0.68500
O90         O  0.43787962  0.82855903  0.39079799    -0.59800
O91         O  0.39639212  0.77091031  0.42949377    -0.72300
O92         O  0.43391879  0.76550621  0.34617869    -0.71100
Cu93       Cu  0.34952064  0.79529153  0.37366000     1.04600
Cu94       Cu  0.41709094  0.76727415  0.38830649     1.04300
C95         C  0.40864504  0.77810248  0.32611302     0.95200
C96         C  0.35916957  0.78487665  0.43603446     0.94400
C97         C  0.41321367  0.86014019  0.38493359     0.86500
C98         C  0.35217254  0.70281227  0.37736840     0.92800
O99         O  0.52120340  0.13255637  0.33229586    -0.71000
O100        O  0.55930331  0.12708224  0.41636791    -0.71900
O101        O  0.51774471  0.07013169  0.37722633    -0.60500
O102        O  0.56385399  0.18934256  0.37134731    -0.69000
O103        O  0.50109884  0.21630471  0.38515238    -0.68500
O104        O  0.45437495  0.09572733  0.39095634    -0.59800
O105        O  0.49599938  0.15326527  0.42966401    -0.72300
O106        O  0.45833492  0.15885413  0.34639026    -0.71100
Cu107      Cu  0.54274630  0.12892872  0.37378366     1.04600
Cu108      Cu  0.47522877  0.15699361  0.38850011     1.04300
C109        C  0.48357278  0.14627738  0.32630014     0.95200
C110        C  0.53321946  0.13924878  0.43616282     0.94400
C111        C  0.47899542  0.06413016  0.38504450     0.86500
C112        C  0.54019125  0.22140682  0.37755185     0.92800
O113        O  0.14297819  0.45020492  0.16932155    -0.71000
O114        O  0.13754399  0.41266593  0.08602047    -0.71900
O115        O  0.07989585  0.45416942  0.12471715    -0.60500
O116        O  0.20054078  0.40756811  0.13056670    -0.69000
O117        O  0.17363599  0.34477575  0.14431425    -0.68500
O118        O  0.05435648  0.39076455  0.13838879    -0.59800
O119        O  0.11142001  0.34932711  0.09926121    -0.72300
O120        O  0.11673610  0.38729862  0.18335595    -0.71100
Cu121      Cu  0.14119354  0.43337734  0.12719973     1.04600
Cu122      Cu  0.11318987  0.36582057  0.14185414     1.04300
C123        C  0.13040386  0.42492742  0.18938545     0.95200
C124        C  0.12358130  0.37544588  0.07949080     0.94400
C125        C  0.04831657  0.42951269  0.13059009     0.86500
C126        C  0.20568224  0.36847487  0.13814203     0.92800
O127        O  0.71900837  0.58006315  0.14430263    -0.71000
O128        O  0.83825000  0.53398201  0.13838986    -0.71900
O129        O  0.78124741  0.57551473  0.09925282    -0.60500
O130        O  0.77584817  0.53740919  0.18335135    -0.69000
O131        O  0.74956154  0.47455384  0.16925324    -0.68500
O132        O  0.75508105  0.51221491  0.08596688    -0.59800
O133        O  0.81267235  0.47061647  0.12466394    -0.72300
O134        O  0.69205588  0.51731751  0.13049783    -0.71100
Cu135      Cu  0.77943597  0.55896273  0.14185093     1.04600
Cu136      Cu  0.75138656  0.49145412  0.12713794     1.04300
C137        C  0.68694455  0.55640751  0.13809384     0.95200
C138        C  0.84426647  0.49524165  0.13056579     0.94400
C139        C  0.76908203  0.54942810  0.07945864     0.86500
C140        C  0.76215350  0.49977520  0.18934734     0.92800
O141        O  0.20062700  0.40754175  0.88512584    -0.71000
O142        O  0.07997365  0.45412295  0.89095146    -0.71900
O143        O  0.13761495  0.41263500  0.92965998    -0.60500
O144        O  0.14306997  0.45016320  0.84635854    -0.69000
O145        O  0.11684287  0.38725069  0.83231983    -0.68500
O146        O  0.11150282  0.34929110  0.91641515    -0.59800
O147        O  0.05444783  0.39071280  0.87727477    -0.72300
O148        O  0.17373552  0.34474300  0.87137500    -0.71100
Cu149      Cu  0.14127491  0.43334106  0.88848088     1.04600
Cu150      Cu  0.11328573  0.36577811  0.87382199     1.04300
C151        C  0.20577648  0.36844893  0.87755100     0.95200
C152        C  0.04839992  0.42946004  0.88507369     0.94400
C153        C  0.12365111  0.37541561  0.93618774     0.86500
C154        C  0.13050785  0.42488037  0.82629214     0.92800
O155        O  0.69214978  0.51730534  0.88504920    -0.71000
O156        O  0.81274774  0.47057346  0.89095136    -0.71900
O157        O  0.75512973  0.51219793  0.92961555    -0.60500
O158        O  0.74968109  0.47451671  0.84633034    -0.69000
O159        O  0.77599735  0.53736148  0.83224006    -0.68500
O160        O  0.78132639  0.57548694  0.91633789    -0.59800
O161        O  0.83835456  0.53392881  0.87723312    -0.72300
O162        O  0.71913273  0.58004033  0.87125394    -0.71100
Cu163      Cu  0.75147002  0.49142723  0.88844426     1.04600
Cu164      Cu  0.77955158  0.55892457  0.87374019     1.04300
C165        C  0.68705621  0.55639340  0.87744429     0.95200
C166        C  0.84435349  0.49518858  0.88506218     0.94400
C167        C  0.76913525  0.54940880  0.93612796     0.86500
C168        C  0.76229654  0.49973012  0.82624058     0.92800
O169        O  0.78121231  0.34890261  0.59923944    -0.71000
O170        O  0.77590970  0.38693023  0.68335849    -0.71900
O171        O  0.71901526  0.34435098  0.64431556    -0.60500
O172        O  0.83826972  0.39036450  0.63837229    -0.69000
O173        O  0.81269716  0.45375748  0.62468849    -0.68500
O174        O  0.69207308  0.40712708  0.63055254    -0.59800
O175        O  0.74963035  0.44981440  0.66930109    -0.72300
O176        O  0.75505498  0.41223077  0.58599493    -0.71100
Cu177      Cu  0.77944912  0.36541494  0.64184632     1.04600
Cu178      Cu  0.75140832  0.43295448  0.62717783     1.04300
C179        C  0.76903563  0.37501464  0.57946295     0.95200
C180        C  0.76223390  0.42456714  0.68937759     0.94400
C181        C  0.68695433  0.36803446  0.63813428     0.86500
C182        C  0.84428955  0.42911079  0.63056760     0.92800
O183        O  0.20048073  0.51706493  0.63051032    -0.71000
O184        O  0.07989363  0.47033958  0.62469758    -0.71900
O185        O  0.13744136  0.51194264  0.58599356    -0.60500
O186        O  0.14301666  0.47433041  0.66927506    -0.69000
O187        O  0.11670782  0.53719700  0.68335042    -0.68500
O188        O  0.11124696  0.57524134  0.59927646    -0.59800
O189        O  0.05428292  0.53370364  0.63841183    -0.72300
O190        O  0.17351154  0.57981801  0.64429943    -0.71100
Cu191      Cu  0.14116456  0.49119594  0.62716106     1.04600
Cu192      Cu  0.11308768  0.55870968  0.64186037     1.04300
C193        C  0.20558158  0.55615666  0.63810008     0.95200
C194        C  0.04828716  0.49495675  0.63059587     0.94400
C195        C  0.12341963  0.54915286  0.57948794     0.86500
C196        C  0.13043049  0.49957697  0.68935665     0.92800
O197        O  0.71892914  0.34439145  0.37126851    -0.71000
O198        O  0.83817798  0.39042535  0.37720779    -0.71900
O199        O  0.78114508  0.34894059  0.41633682    -0.60500
O200        O  0.77579968  0.38699278  0.33222557    -0.69000
O201        O  0.74951516  0.44986829  0.34629664    -0.68500
O202        O  0.75498044  0.41225887  0.42959722    -0.59800
O203        O  0.81259854  0.45380859  0.39090723    -0.72300
O204        O  0.69198153  0.40715865  0.38504606    -0.71100
Cu205      Cu  0.77936043  0.36546609  0.37373374     1.04600
Cu206      Cu  0.75131299  0.43299565  0.38841813     1.04300
C207        C  0.68686678  0.36806664  0.37745987     0.95200
C208        C  0.84419364  0.42916815  0.38502420     0.94400
C209        C  0.76897299  0.37504378  0.43612009     0.86500
C210        C  0.76211375  0.42462841  0.32621399     0.92800
O211        O  0.05419016  0.53375260  0.37728691    -0.71000
O212        O  0.17341906  0.57985058  0.37137509    -0.71900
O213        O  0.11658476  0.53724751  0.33233521    -0.60500
O214        O  0.11118682  0.57527203  0.41641652    -0.69000
O215        O  0.13738296  0.51196679  0.42968265    -0.68500
O216        O  0.14289408  0.47437404  0.34639571    -0.59800
O217        O  0.20039166  0.51709091  0.38514660    -0.72300
O218        O  0.07980005  0.47038121  0.39098546    -0.71100
Cu219      Cu  0.11299526  0.55875089  0.37382917     1.04600
Cu220      Cu  0.14107342  0.49122979  0.38851118     1.04300
C221        C  0.04819363  0.49500322  0.38509442     0.95200
C222        C  0.20549173  0.55618126  0.37755487     0.94400
C223        C  0.13030067  0.49962766  0.32632073     0.86500
C224        C  0.12337002  0.54917680  0.43619783     0.92800
C225        C  0.00504692  0.47923302  0.38710927    -0.16500
C226        C  0.96802508  0.46811473  0.38794002     0.07500
C227        C  0.92437472  0.45600979  0.38792190     0.09400
C228        C  0.88734917  0.44490808  0.38706307    -0.17400
C229        C  0.12112862  0.56104987  0.54928902    -0.16500
C230        C  0.12020078  0.56592221  0.52323908     0.07500
C231        C  0.12019047  0.56592813  0.49245062     0.09400
C232        C  0.12110055  0.56106521  0.46639943    -0.17400
C233        C  0.77123570  0.36316624  0.46633310    -0.16500
C234        C  0.77215118  0.35831438  0.49239065     0.07500
C235        C  0.77216695  0.35830625  0.52318817     0.09400
C236        C  0.77127621  0.36314602  0.54924727    -0.17400
C237        C  0.88744648  0.44485035  0.62854467    -0.16500
C238        C  0.92447215  0.45595476  0.62770913     0.07500
C239        C  0.96812125  0.46806432  0.62772123     0.09400
C240        C  0.00514126  0.47918568  0.62857215    -0.17400
C241        C  0.76151506  0.48499458  0.79653729    -0.16500
C242        C  0.76118965  0.47080937  0.77206473     0.07500
C243        C  0.76117324  0.45344670  0.74356362     0.09400
C244        C  0.76147338  0.43927340  0.71908775    -0.17400
C245        C  0.13131034  0.43952320  0.79657907    -0.16500
C246        C  0.13163244  0.45359541  0.77208347     0.07500
C247        C  0.13161793  0.47081999  0.74355491     0.09400
C248        C  0.13126953  0.48490448  0.71906266    -0.17400
C249        C  0.88750374  0.47942503  0.88710335    -0.16500
C250        C  0.92453443  0.46833003  0.88795084     0.07500
C251        C  0.96819650  0.45625746  0.88794755     0.09400
C252        C  0.00523198  0.44517890  0.88709942    -0.17400
C253        C  0.76135734  0.48504490  0.21905163    -0.16500
C254        C  0.76103095  0.47086591  0.24352564     0.07500
C255        C  0.76102292  0.45351045  0.27202870     0.09400
C256        C  0.76133531  0.43934001  0.29650511    -0.17400
C257        C  0.77135950  0.56132104  0.04924935    -0.16500
C258        C  0.77227825  0.56617310  0.02319207     0.07500
C259        C  0.77228917  0.56616824  0.99239468     0.09400
C260        C  0.77138934  0.56130867  0.96633747    -0.17400
C261        C  0.13119396  0.43957594  0.21909749    -0.16500
C262        C  0.13150471  0.45365278  0.24359219     0.07500
C263        C  0.13147970  0.47088055  0.27212000     0.09400
C264        C  0.13112903  0.48496379  0.29661273    -0.17400
C265        C  0.12139267  0.36355002  0.96639341    -0.16500
C266        C  0.12047380  0.35869877  0.99244529     0.07500
C267        C  0.12045503  0.35870688  0.02323396     0.09400
C268        C  0.12134531  0.36357048  0.04928551    -0.17400
C269        C  0.88742288  0.47948964  0.12854196    -0.16500
C270        C  0.92445533  0.46839846  0.12770270     0.07500
C271        C  0.96811723  0.45632399  0.12771045     0.09400
C272        C  0.00515143  0.44524004  0.12856061    -0.17400
C273        C  0.55893155  0.26346129  0.37657783    -0.16500
C274        C  0.58095137  0.29526506  0.37616359     0.07500
C275        C  0.61299604  0.32731268  0.37613265     0.09400
C276        C  0.64480224  0.34933453  0.37650410    -0.17400
C277        C  0.24755548  0.57490819  0.37655841    -0.16500
C278        C  0.27937070  0.59691346  0.37612199     0.07500
C279        C  0.31142974  0.62894548  0.37606596     0.09400
C280        C  0.33345331  0.66074774  0.37642118    -0.17400
C281        C  0.42893735  0.90329564  0.38697498    -0.16500
C282        C  0.44002518  0.94031986  0.38783992     0.07500
C283        C  0.45211530  0.98396819  0.38786860     0.09400
C284        C  0.46322529  0.02098790  0.38704803    -0.17400
C285        C  0.64488602  0.34931208  0.63909961    -0.16500
C286        C  0.61307465  0.32729811  0.63948264     0.07500
C287        C  0.58102073  0.29525955  0.63946481     0.09400
C288        C  0.55898964  0.26346323  0.63905707    -0.17400
C289        C  0.54513905  0.13698552  0.54925388    -0.16500
C290        C  0.55000901  0.13605510  0.52320286     0.07500
C291        C  0.55000604  0.13604477  0.49241284     0.09400
C292        C  0.54513138  0.13696062  0.46636167    -0.17400
C293        C  0.33351505  0.66076120  0.63903559    -0.16500
C294        C  0.31150189  0.62895303  0.63943822     0.07500
C295        C  0.27945135  0.59691235  0.63944707     0.09400
C296        C  0.24764121  0.57489757  0.63905996    -0.17400
C297        C  0.34732056  0.78711581  0.54915933    -0.16500
C298        C  0.34247581  0.78801029  0.52310211     0.07500
C299        C  0.34247345  0.78800936  0.49230702     0.09400
C300        C  0.34731406  0.78711237  0.46624982    -0.17400
C301        C  0.42894020  0.90332980  0.62845377    -0.16500
C302        C  0.44002049  0.94035773  0.62762157     0.07500
C303        C  0.45210149  0.98400848  0.62764149     0.09400
C304        C  0.46320788  0.02102736  0.62850179    -0.17400
C305        C  0.55914938  0.66107657  0.87644232    -0.16500
C306        C  0.58116922  0.62926552  0.87605022     0.07500
C307        C  0.61320421  0.59719852  0.87605684     0.09400
C308        C  0.64499994  0.57515345  0.87646055    -0.17400
C309        C  0.46900102  0.77748843  0.79647613    -0.16500
C310        C  0.45483789  0.77713909  0.77199896     0.07500
C311        C  0.43750983  0.77710185  0.74349024     0.09400
C312        C  0.42336499  0.77738966  0.71900784    -0.17400
C313        C  0.33371715  0.26386807  0.87654115    -0.16500
C314        C  0.31172198  0.29569393  0.87615838     0.07500
C315        C  0.27967920  0.32774848  0.87617361     0.09400
C316        C  0.24785925  0.34975496  0.87657829    -0.17400
C317        C  0.42343569  0.14725533  0.79651821    -0.16500
C318        C  0.43752429  0.14754704  0.77202527     0.07500
C319        C  0.45477766  0.14749940  0.74350248     0.09400
C320        C  0.46888751  0.14713112  0.71901558    -0.17400
C321        C  0.46339999  0.90355210  0.88699428    -0.16500
C322        C  0.45228076  0.94057028  0.88784821     0.07500
C323        C  0.44017568  0.98421741  0.88786235     0.09400
C324        C  0.42907933  0.02124349  0.88703093    -0.17400
C325        C  0.55904487  0.66109393  0.13896941    -0.16500
C326        C  0.58105506  0.62927673  0.13938270     0.07500
C327        C  0.61308659  0.59720606  0.13941214     0.09400
C328        C  0.64488369  0.57516158  0.13904207    -0.17400
C329        C  0.46894881  0.77750404  0.21893085    -0.16500
C330        C  0.45478775  0.77713685  0.24340765     0.07500
C331        C  0.43746417  0.77707889  0.27191659     0.09400
C332        C  0.42332359  0.77735441  0.29639944    -0.17400
C333        C  0.54532455  0.78755060  0.96625723    -0.16500
C334        C  0.55018482  0.78847807  0.99231238     0.07500
C335        C  0.55017698  0.78849141  0.02310718     0.09400
C336        C  0.54530437  0.78758343  0.04916123    -0.17400
C337        C  0.24776144  0.34977160  0.13911566    -0.16500
C338        C  0.27957952  0.32776152  0.13951304     0.07500
C339        C  0.31162509  0.29570901  0.13951318     0.09400
C340        C  0.33362952  0.26388955  0.13911483    -0.17400
C341        C  0.42341751  0.14727444  0.21909378    -0.16500
C342        C  0.43750848  0.14755917  0.24358696     0.07500
C343        C  0.45476512  0.14750449  0.27210978     0.09400
C344        C  0.46887711  0.14713063  0.29659685    -0.17400
C345        C  0.34749832  0.13746591  0.96635419    -0.16500
C346        C  0.34264439  0.13658216  0.99240751     0.07500
C347        C  0.34263862  0.13660147  0.02319787     0.09400
C348        C  0.34748348  0.13751273  0.04925190    -0.17400
C349        C  0.46341286  0.90362163  0.12845564    -0.16500
C350        C  0.45230658  0.94064525  0.12763057     0.07500
C351        C  0.44021067  0.98429541  0.12765624     0.09400
C352        C  0.42911331  0.02131978  0.12851974    -0.17400
loop_ 
_geom_bond_atom_site_label_1 
_geom_bond_atom_site_label_2 
_geom_bond_distance 
_geom_bond_site_symmetry_2 
_ccdc_geom_bond_type 
O1           Cu9   2.021       .  S
O1           C11   1.278       .  A
O2           Cu9   2.024       .  S
O2           C12   1.278       .  A
O3           Cu9   2.009       .  S
O3           C13   1.276       .  A
O4           Cu9   2.005       .  S
O4           C14   1.276       .  A
O5          Cu10   2.027       .  S
O5           C14   1.279       .  A
O6          Cu10   2.027       .  S
O6           C13   1.279       .  A
O7          Cu10   1.999       .  S
O7           C12   1.275       .  A
O8          Cu10   1.999       .  S
O8           C11   1.275       .  A
Cu9         Cu10   2.378       .  S
C11         C352   1.436       .  S
C12         C340   1.437       .  S
C13         C341   1.442       .  S
C14         C348   1.440       .  S
O15         Cu23   2.027       .  S
O15          C25   1.279       .  A
O16         Cu23   2.027       .  S
O16          C26   1.279       .  A
O17         Cu23   1.999       .  S
O17          C27   1.275       .  A
O18         Cu23   1.999       .  S
O18          C28   1.275       .  A
O19         Cu24   2.024       .  S
O19          C28   1.278       .  A
O20         Cu24   2.022       .  S
O20          C27   1.278       .  A
O21         Cu24   2.005       .  S
O21          C26   1.276       .  A
O22         Cu24   2.009       .  S
O22          C25   1.276       .  A
Cu23        Cu24   2.378       .  S
C25         C329   1.442       .  S
C26         C336   1.440       .  S
C27         C349   1.436       .  S
C28         C325   1.437       .  S
O29         Cu37   1.999       .  S
O29          C39   1.275       .  A
O30         Cu37   1.999       .  S
O30          C40   1.275       .  A
O31         Cu37   2.027       .  S
O31          C41   1.279       .  A
O32         Cu37   2.027       .  S
O32          C42   1.279       .  A
O33         Cu38   2.009       .  S
O33          C42   1.276       .  A
O34         Cu38   2.005       .  S
O34          C41   1.276       .  A
O35         Cu38   2.021       .  S
O35          C40   1.278       .  A
O36         Cu38   2.024       .  S
O36          C39   1.278       .  A
Cu37        Cu38   2.378       .  S
C39         C313   1.437       .  S
C40         C324   1.436       .  S
C41         C345   1.440       .  S
C42         C317   1.442       .  S
O43         Cu51   2.009       .  S
O43          C53   1.276       .  A
O44         Cu51   2.005       .  S
O44          C54   1.276       .  A
O45         Cu51   2.022       .  S
O45          C55   1.278       .  A
O46         Cu51   2.024       .  S
O46          C56   1.278       .  A
O47         Cu52   1.999       .  S
O47          C56   1.275       .  A
O48         Cu52   1.999       .  S
O48          C55   1.275       .  A
O49         Cu52   2.027       .  S
O49          C54   1.279       .  A
O50         Cu52   2.027       .  S
O50          C53   1.279       .  A
Cu51        Cu52   2.378       .  S
C53         C309   1.442       .  S
C54         C333   1.440       .  S
C55         C321   1.436       .  S
C56         C305   1.437       .  S
O57         Cu65   2.009       .  S
O57          C67   1.276       .  A
O58         Cu65   2.005       .  S
O58          C68   1.276       .  A
O59         Cu65   2.022       .  S
O59          C69   1.278       .  A
O60         Cu65   2.024       .  S
O60          C70   1.278       .  A
O61         Cu66   1.999       .  S
O61          C70   1.275       .  A
O62         Cu66   1.999       .  S
O62          C69   1.275       .  A
O63         Cu66   2.027       .  S
O63          C68   1.279       .  A
O64         Cu66   2.027       .  S
O64          C67   1.279       .  A
Cu65        Cu66   2.378       .  S
C67         C312   1.442       .  S
C68         C297   1.440       .  S
C69         C301   1.436       .  S
C70         C293   1.437       .  S
O71         Cu79   1.999       .  S
O71          C81   1.275       .  A
O72         Cu79   1.999       .  S
O72          C82   1.275       .  A
O73         Cu79   2.027       .  S
O73          C83   1.279       .  A
O74         Cu79   2.027       .  S
O74          C84   1.279       .  A
O75         Cu80   2.009       .  S
O75          C84   1.276       .  A
O76         Cu80   2.005       .  S
O76          C83   1.276       .  A
O77         Cu80   2.022       .  S
O77          C82   1.278       .  A
O78         Cu80   2.024       .  S
O78          C81   1.278       .  A
Cu79        Cu80   2.378       .  S
C81         C288   1.437       .  S
C82         C304   1.436       .  S
C83         C289   1.440       .  S
C84         C320   1.442       .  S
O85         Cu93   2.027       .  S
O85          C95   1.279       .  A
O86         Cu93   2.027       .  S
O86          C96   1.279       .  A
O87         Cu93   1.999       .  S
O87          C97   1.275       .  A
O88         Cu93   1.999       .  S
O88          C98   1.275       .  A
O89         Cu94   2.024       .  S
O89          C98   1.278       .  A
O90         Cu94   2.022       .  S
O90          C97   1.278       .  A
O91         Cu94   2.005       .  S
O91          C96   1.276       .  A
O92         Cu94   2.009       .  S
O92          C95   1.276       .  A
Cu93        Cu94   2.378       .  S
C95         C332   1.442       .  S
C96         C300   1.440       .  S
C97         C281   1.436       .  S
C98         C280   1.437       .  S
O99        Cu107   2.027       .  S
O99         C109   1.279       .  A
O100       Cu107   2.027       .  S
O100        C110   1.279       .  A
O101       Cu107   1.999       .  S
O101        C111   1.275       .  A
O102       Cu107   1.999       .  S
O102        C112   1.275       .  A
O103       Cu108   2.024       .  S
O103        C112   1.278       .  A
O104       Cu108   2.022       .  S
O104        C111   1.278       .  A
O105       Cu108   2.005       .  S
O105        C110   1.276       .  A
O106       Cu108   2.009       .  S
O106        C109   1.276       .  A
Cu107      Cu108   2.378       .  S
C109        C344   1.442       .  S
C110        C292   1.440       .  S
C111        C284   1.436       .  S
C112        C273   1.437       .  S
O113       Cu121   2.009       .  S
O113        C123   1.276       .  A
O114       Cu121   2.005       .  S
O114        C124   1.276       .  A
O115       Cu121   2.021       .  S
O115        C125   1.278       .  A
O116       Cu121   2.024       .  S
O116        C126   1.278       .  A
O117       Cu122   1.999       .  S
O117        C126   1.275       .  A
O118       Cu122   1.999       .  S
O118        C125   1.275       .  A
O119       Cu122   2.027       .  S
O119        C124   1.279       .  A
O120       Cu122   2.027       .  S
O120        C123   1.279       .  A
Cu121      Cu122   2.378       .  S
C123        C261   1.442       .  S
C124        C268   1.440       .  S
C125        C272   1.436       .  S
C126        C337   1.437       .  S
O127       Cu135   1.999       .  S
O127        C137   1.275       .  A
O128       Cu135   1.999       .  S
O128        C138   1.275       .  A
O129       Cu135   2.028       .  S
O129        C139   1.279       .  A
O130       Cu135   2.028       .  S
O130        C140   1.279       .  A
O131       Cu136   2.009       .  S
O131        C140   1.276       .  A
O132       Cu136   2.005       .  S
O132        C139   1.276       .  A
O133       Cu136   2.022       .  S
O133        C138   1.278       .  A
O134       Cu136   2.024       .  S
O134        C137   1.278       .  A
Cu135      Cu136   2.378       .  S
C137        C328   1.437       .  S
C138        C269   1.436       .  S
C139        C257   1.440       .  S
C140        C253   1.442       .  S
O141       Cu149   2.024       .  S
O141        C151   1.278       .  A
O142       Cu149   2.021       .  S
O142        C152   1.278       .  A
O143       Cu149   2.005       .  S
O143        C153   1.276       .  A
O144       Cu149   2.009       .  S
O144        C154   1.276       .  A
O145       Cu150   2.027       .  S
O145        C154   1.279       .  A
O146       Cu150   2.027       .  S
O146        C153   1.279       .  A
O147       Cu150   1.999       .  S
O147        C152   1.275       .  A
O148       Cu150   1.999       .  S
O148        C151   1.275       .  A
Cu149      Cu150   2.378       .  S
C151        C316   1.437       .  S
C152        C252   1.435       .  S
C153        C265   1.440       .  S
C154        C245   1.442       .  S
O155       Cu163   2.024       .  S
O155        C165   1.278       .  A
O156       Cu163   2.022       .  S
O156        C166   1.278       .  A
O157       Cu163   2.005       .  S
O157        C167   1.276       .  A
O158       Cu163   2.009       .  S
O158        C168   1.276       .  A
O159       Cu164   2.027       .  S
O159        C168   1.279       .  A
O160       Cu164   2.028       .  S
O160        C167   1.279       .  A
O161       Cu164   1.999       .  S
O161        C166   1.275       .  A
O162       Cu164   1.999       .  S
O162        C165   1.275       .  A
Cu163      Cu164   2.378       .  S
C165        C308   1.437       .  S
C166        C249   1.435       .  S
C167        C260   1.440       .  S
C168        C241   1.442       .  S
O169       Cu177   2.028       .  S
O169        C179   1.279       .  A
O170       Cu177   2.027       .  S
O170        C180   1.279       .  A
O171       Cu177   1.999       .  S
O171        C181   1.275       .  A
O172       Cu177   1.999       .  S
O172        C182   1.275       .  A
O173       Cu178   2.022       .  S
O173        C182   1.278       .  A
O174       Cu178   2.024       .  S
O174        C181   1.278       .  A
O175       Cu178   2.009       .  S
O175        C180   1.276       .  A
O176       Cu178   2.005       .  S
O176        C179   1.276       .  A
Cu177      Cu178   2.378       .  S
C179        C236   1.440       .  S
C180        C244   1.442       .  S
C181        C285   1.437       .  S
C182        C237   1.436       .  S
O183       Cu191   2.024       .  S
O183        C193   1.278       .  A
O184       Cu191   2.021       .  S
O184        C194   1.278       .  A
O185       Cu191   2.005       .  S
O185        C195   1.276       .  A
O186       Cu191   2.009       .  S
O186        C196   1.276       .  A
O187       Cu192   2.027       .  S
O187        C196   1.279       .  A
O188       Cu192   2.027       .  S
O188        C195   1.279       .  A
O189       Cu192   1.999       .  S
O189        C194   1.275       .  A
O190       Cu192   1.999       .  S
O190        C193   1.275       .  A
Cu191      Cu192   2.378       .  S
C193        C296   1.437       .  S
C194        C240   1.436       .  S
C195        C229   1.440       .  S
C196        C248   1.442       .  S
O197       Cu205   1.999       .  S
O197        C207   1.275       .  A
O198       Cu205   1.999       .  S
O198        C208   1.275       .  A
O199       Cu205   2.028       .  S
O199        C209   1.279       .  A
O200       Cu205   2.027       .  S
O200        C210   1.279       .  A
O201       Cu206   2.009       .  S
O201        C210   1.276       .  A
O202       Cu206   2.005       .  S
O202        C209   1.276       .  A
O203       Cu206   2.022       .  S
O203        C208   1.278       .  A
O204       Cu206   2.024       .  S
O204        C207   1.278       .  A
Cu205      Cu206   2.378       .  S
C207        C276   1.437       .  S
C208        C228   1.436       .  S
C209        C233   1.440       .  S
C210        C256   1.442       .  S
O211       Cu219   1.999       .  S
O211        C221   1.275       .  A
O212       Cu219   1.999       .  S
O212        C222   1.275       .  A
O213       Cu219   2.027       .  S
O213        C223   1.279       .  A
O214       Cu219   2.027       .  S
O214        C224   1.279       .  A
O215       Cu220   2.005       .  S
O215        C224   1.276       .  A
O216       Cu220   2.009       .  S
O216        C223   1.276       .  A
O217       Cu220   2.024       .  S
O217        C222   1.278       .  A
O218       Cu220   2.021       .  S
O218        C221   1.278       .  A
Cu219      Cu220   2.378       .  S
C221        C225   1.436       .  S
C222        C277   1.437       .  S
C223        C264   1.442       .  S
C224        C232   1.440       .  S
C225        C226   1.206   1_455  T
C226        C227   1.413       .  S
C227        C228   1.206       .  T
C229        C230   1.209       .  T
C230        C231   1.417       .  S
C231        C232   1.209       .  T
C233        C234   1.209       .  T
C234        C235   1.417       .  S
C235        C236   1.209       .  T
C237        C238   1.206       .  T
C238        C239   1.413       .  S
C239        C240   1.206   1_655  T
C241        C242   1.210       .  T
C242        C243   1.419       .  S
C243        C244   1.210       .  T
C245        C246   1.210       .  T
C246        C247   1.418       .  S
C247        C248   1.210       .  T
C249        C250   1.206       .  T
C250        C251   1.413       .  S
C251        C252   1.206   1_655  T
C253        C254   1.210       .  T
C254        C255   1.419       .  S
C255        C256   1.210       .  T
C257        C258   1.209       .  T
C258        C259   1.417   1_554  S
C259        C260   1.209       .  T
C261        C262   1.210       .  T
C262        C263   1.418       .  S
C263        C264   1.210       .  T
C265        C266   1.209       .  T
C266        C267   1.417   1_556  S
C267        C268   1.209       .  T
C269        C270   1.206       .  T
C270        C271   1.413       .  S
C271        C272   1.206   1_655  T
C273        C274   1.207       .  T
C274        C275   1.413       .  S
C275        C276   1.207       .  T
C277        C278   1.207       .  T
C278        C279   1.413       .  S
C279        C280   1.207       .  T
C281        C282   1.206       .  T
C282        C283   1.413       .  S
C283        C284   1.206   1_565  T
C285        C286   1.207       .  T
C286        C287   1.413       .  S
C287        C288   1.207       .  T
C289        C290   1.209       .  T
C290        C291   1.417       .  S
C291        C292   1.209       .  T
C293        C294   1.207       .  T
C294        C295   1.413       .  S
C295        C296   1.207       .  T
C297        C298   1.209       .  T
C298        C299   1.417       .  S
C299        C300   1.209       .  T
C301        C302   1.206       .  T
C302        C303   1.413       .  S
C303        C304   1.206   1_565  T
C305        C306   1.207       .  T
C306        C307   1.413       .  S
C307        C308   1.207       .  T
C309        C310   1.210       .  T
C310        C311   1.419       .  S
C311        C312   1.210       .  T
C313        C314   1.206       .  T
C314        C315   1.413       .  S
C315        C316   1.206       .  T
C317        C318   1.210       .  T
C318        C319   1.418       .  S
C319        C320   1.210       .  T
C321        C322   1.206       .  T
C322        C323   1.413       .  S
C323        C324   1.206   1_565  T
C325        C326   1.207       .  T
C326        C327   1.413       .  S
C327        C328   1.207       .  T
C329        C330   1.210       .  T
C330        C331   1.419       .  S
C331        C332   1.210       .  T
C333        C334   1.209       .  T
C334        C335   1.417   1_556  S
C335        C336   1.209       .  T
C337        C338   1.207       .  T
C338        C339   1.413       .  S
C339        C340   1.207       .  T
C341        C342   1.210       .  T
C342        C343   1.418       .  S
C343        C344   1.210       .  T
C345        C346   1.209       .  T
C346        C347   1.417   1_556  S
C347        C348   1.209       .  T
C349        C350   1.206       .  T
C350        C351   1.413       .  S
C351        C352   1.206   1_565  T
