geometry optimzed in LAMMPS
_audit_creation_date              2020-12-01 
_audit_creation_method            'lammps2cif' 
_symmetry_space_group_name_H-M    'P1' 
_symmetry_Int_Tables_number       1 
_symmetry_cell_setting            triclinic 
loop_ 
_symmetry_equiv_pos_as_xyz 
  x,y,z 
_cell_length_a                    34.93019102 
_cell_length_b                    35.00611998378891 
_cell_length_c                    44.75584846108941 
_cell_angle_alpha                 89.89709062812055 
_cell_angle_beta                  90.17897104160177 
_cell_angle_gamma                 119.90512540954342 
loop_ 
_atom_site_label 
_atom_site_type_symbol 
_atom_site_fract_x 
_atom_site_fract_y 
_atom_site_fract_z 
_atom_site_charge 
O1          O  0.79084560  0.82313958  0.34471151    -0.74500
O2          O  0.67930422  0.71591987  0.34712355    -0.74600
O3          O  0.75059466  0.75535189  0.38392624    -0.74600
O4          O  0.71985100  0.78387273  0.30790834    -0.74700
O5          O  0.74943285  0.74830874  0.28500482    -0.74600
O6          O  0.78078684  0.72050691  0.36082513    -0.74600
O7          O  0.70915269  0.68055980  0.32428078    -0.74600
O8          O  0.82050717  0.78789974  0.32146172    -0.74600
Ni9        Ni  0.73402291  0.77075170  0.34675722     1.25400
Ni10       Ni  0.76594790  0.73300161  0.32210116     1.25400
C11         C  0.82407082  0.82329956  0.33249892     0.87600
C12         C  0.67572429  0.68052238  0.33605752     0.87600
C13         C  0.77129990  0.73370349  0.38492163     0.87600
C14         C  0.73010311  0.77124363  0.28384809     0.87800
O15         O  0.20559297  0.18199402  0.34192917    -0.74500
O16         O  0.31888384  0.28696001  0.34465996    -0.74600
O17         O  0.24767213  0.24874745  0.38146030    -0.74600
O18         O  0.27634138  0.21993301  0.30525297    -0.74700
O19         O  0.24815582  0.25709945  0.28253360    -0.74600
O20         O  0.21909818  0.28569767  0.35893884    -0.74600
O21         O  0.29055020  0.32418030  0.32219662    -0.74600
O22         O  0.17717079  0.21902318  0.31929523    -0.74600
Ni23       Ni  0.26318597  0.23318601  0.34413836     1.25400
Ni24       Ni  0.23282904  0.27291286  0.31993637     1.25400
C25         C  0.17265079  0.18311175  0.33018877     0.87600
C26         C  0.32353959  0.32290553  0.33374862     0.87600
C27         C  0.22798501  0.27133623  0.38284134     0.87600
C28         C  0.26649860  0.23323746  0.28126715     0.87800
O29         O  0.04382629  0.82463737  0.65105659    -0.74500
O30         O  0.03620331  0.71157769  0.65389469    -0.74600
O31         O  0.00748640  0.75238491  0.61568235    -0.74600
O32         O  0.07263150  0.78445748  0.68913139    -0.74700
O33         O  0.00975234  0.75730152  0.71465950    -0.74600
O34         O  0.94443926  0.72564256  0.64096578    -0.74600
O35         O  0.97303998  0.68452653  0.67907728    -0.74600
O36         O  0.98094968  0.79759868  0.67659568    -0.74600
Ni37       Ni  0.04223634  0.76908406  0.65153823     1.25400
Ni38       Ni  0.97479983  0.74017044  0.67873822     1.25400
C39         C  0.01371574  0.82983140  0.66347845     0.87600
C40         C  0.00327631  0.67929989  0.66689016     0.87600
C41         C  0.96531720  0.73459695  0.61609654     0.87600
C42         C  0.05208634  0.77719166  0.71401387     0.87800
O43         O  0.03699248  0.21206946  0.67892859    -0.74500
O44         O  0.04080510  0.32326749  0.68237435    -0.74600
O45         O  0.00835376  0.25090416  0.71835650    -0.74600
O46         O  0.06915769  0.28368262  0.64303984    -0.74700
O47         O  0.00451396  0.25504903  0.61931959    -0.72200
O48         O  0.94378687  0.22145073  0.69448769    -0.74600
O49         O  0.97598314  0.29409733  0.65884103    -0.74600
O50         O  0.97245446  0.18304671  0.65500262    -0.74600
Ni51       Ni  0.04110674  0.26862665  0.68154792     1.25400
Ni52       Ni  0.97191291  0.23749125  0.65608091     1.25400
C53         C  0.00406021  0.17916938  0.66639336     0.87600
C54         C  0.00920578  0.32719548  0.67100799     0.87600
C55         C  0.96597047  0.22978311  0.71884272     0.87600
C56         C  0.04680052  0.27416397  0.61868526     0.87800
O57         O  0.81439986  0.01882009  0.01089163    -0.74500
O58         O  0.70557830  0.02103341  0.00795812    -0.74600
O59         O  0.74303412  0.98978444  0.04682930    -0.74600
O60         O  0.77763187  0.05070823  0.97183099    -0.74700
O61         O  0.74602458  0.98643595  0.94781257    -0.74600
O62         O  0.71055084  0.92530939  0.02302476    -0.74600
O63         O  0.67398547  0.95713920  0.98337813    -0.74600
O64         O  0.78180056  0.95417643  0.98728925    -0.74600
Ni65       Ni  0.76123678  0.02240200  0.01019586     1.25400
Ni66       Ni  0.72686303  0.95351430  0.98451291     1.25400
C67         C  0.81583763  0.98576425  0.99985182     0.87600
C68         C  0.67181520  0.98932830  0.99513872     0.87600
C69         C  0.72174112  0.94756052  0.04740431     0.87600
C70         C  0.76823385  0.02871175  0.94740874     0.87800
O71         O  0.17545120  0.96303480  0.01740827    -0.74500
O72         O  0.28286838  0.95841489  0.01912306    -0.74600
O73         O  0.24592322  0.99432649  0.05420985    -0.74600
O74         O  0.21155290  0.92669760  0.98212238    -0.74700
O75         O  0.24506901  0.98848594  0.95530678    -0.74600
O76         O  0.27930206  0.05648613  0.02777436    -0.74600
O77         O  0.31620436  0.02019526  0.99224589    -0.74600
O78         O  0.20900332  0.02483798  0.99059094    -0.74600
Ni79       Ni  0.22789388  0.95841023  0.01912737     1.25400
Ni80       Ni  0.26373531  0.02470479  0.99052631     1.25400
C81         C  0.17460207  0.99491073  0.00386765     0.87600
C82         C  0.31730181  0.98861097  0.00599392     0.87600
C83         C  0.26711945  0.03650373  0.05298274     0.87600
C84         C  0.22172696  0.94635160  0.95678087     0.87800
C85         C  0.85699852  0.98351482  0.00179898    -0.03300
C86         C  0.85696487  0.94476742  0.99350902    -0.05900
C87         C  0.89543172  0.94206460  0.99570651    -0.21000
C88         C  0.93494118  0.97821107  0.00572686     0.24700
C89         C  0.93508473  0.01696053  0.01423108    -0.18600
C90         C  0.89643429  0.01952774  0.01233370    -0.08500
C91         C  0.97505413  0.97398461  0.00765663    -0.18800
C92         C  0.01600103  0.00827002  0.00353104    -0.23600
C93         C  0.05596200  0.00365187  0.00382734     0.26800
C94         C  0.09236280  0.03256436  0.98646089    -0.20400
C95         C  0.13069539  0.02943982  0.98627152    -0.10000
C96         C  0.13359674  0.99754167  0.00371281    -0.10600
C97         C  0.09728083  0.96884087  0.02138494    -0.03500
C98         C  0.05886022  0.97190872  0.02149998    -0.18600
H99         H  0.82707426  0.91628670  0.98550924     0.10500
H100        H  0.89444736  0.91178953  0.98925089     0.10600
H101        H  0.96476511  0.04502413  0.02283203     0.10200
H102        H  0.89744654  0.04969232  0.01912364     0.11300
H103        H  0.97038329  0.94111500  0.01040522     0.11400
H104        H  0.02023721  0.04025671  0.99768162     0.13300
H105        H  0.09098151  0.05740712  0.97279503     0.09800
H106        H  0.15810570  0.05209815  0.97242701     0.11900
H107        H  0.09869619  0.94432568  0.03536745     0.08500
H108        H  0.03184974  0.94994326  0.03584700     0.11300
C109        C  0.62966836  0.98961296  0.99376393    -0.03300
C110        C  0.59934607  0.96724680  0.97065975    -0.05900
C111        C  0.55944857  0.96737905  0.96912059    -0.21000
C112        C  0.54846554  0.98874464  0.99110216     0.24700
C113        C  0.57868161  0.01103655  0.01434334    -0.18600
C114        C  0.61911660  0.01177168  0.01550304    -0.08500
C115        C  0.50610290  0.98869148  0.98850106    -0.18800
C116        C  0.48219647  0.98733859  0.01240703    -0.23600
C117        C  0.43954387  0.98673752  0.00966938     0.26800
C118        C  0.40645509  0.96380787  0.03097130    -0.20400
C119        C  0.36632687  0.96357422  0.02939442    -0.10000
C120        C  0.35898421  0.98727554  0.00690889    -0.10600
C121        C  0.39226602  0.01052680  0.98569820    -0.03500
C122        C  0.43205141  0.01005656  0.98694147    -0.18600
H123        H  0.60677443  0.95013701  0.95349685     0.10500
H124        H  0.53685875  0.95034041  0.95088668     0.10600
H125        H  0.57149652  0.02862677  0.03126113     0.10200
H126        H  0.64189820  0.02922205  0.03355544     0.11300
H127        H  0.49300427  0.98708348  0.96621726     0.11400
H128        H  0.49298289  0.98422406  0.03460345     0.13300
H129        H  0.41161563  0.94587906  0.04878431     0.09800
H130        H  0.34139356  0.94559264  0.04616153     0.11900
H131        H  0.38754885  0.02910228  0.96813631     0.08500
H132        H  0.45730910  0.02886922  0.97056521     0.11300
C133        C  0.78423638  0.05240230  0.91847077    -0.03300
C134        C  0.77421555  0.02899449  0.89140439    -0.05900
C135        C  0.79156503  0.05101635  0.86436714    -0.21000
C136        C  0.81973778  0.09691117  0.86365719     0.24700
C137        C  0.82865165  0.12059092  0.89061433    -0.18600
C138        C  0.81115461  0.09856570  0.91767294    -0.08500
C139        C  0.83892615  0.11852465  0.83440726    -0.18800
C140        C  0.87676325  0.15751251  0.83174515    -0.23600
C141        C  0.89816263  0.17705265  0.80251138     0.26800
C142        C  0.94381805  0.20691731  0.80195730    -0.20400
C143        C  0.96569572  0.22469471  0.77494052    -0.10000
C144        C  0.94233145  0.21351138  0.74775888    -0.10600
C145        C  0.89633446  0.18484440  0.74839331    -0.03500
C146        C  0.87448077  0.16683478  0.77541432    -0.18600
H147        H  0.75341433  0.99347208  0.89111357     0.10500
H148        H  0.78369067  0.03194335  0.84397082     0.10600
H149        H  0.84894840  0.15611623  0.89098350     0.10200
H150        H  0.81921969  0.11771253  0.93803586     0.11300
H151        H  0.82296631  0.09979004  0.81441394     0.11400
H152        H  0.89484873  0.17436382  0.85175422     0.13300
H153        H  0.96285089  0.21578697  0.82245677     0.09800
H154        H  0.00109369  0.24681489  0.77534080     0.11900
H155        H  0.87723426  0.17568996  0.72792138     0.08500
H156        H  0.83908046  0.14511743  0.77490945     0.11300
C157        C  0.07774832  0.79367651  0.74215348    -0.03300
C158        C  0.12416752  0.81778776  0.74150646    -0.05900
C159        C  0.14839731  0.83708739  0.76752228    -0.21000
C160        C  0.12694938  0.83244168  0.79485998     0.24700
C161        C  0.08048267  0.80761787  0.79566792    -0.18600
C162        C  0.05622082  0.78837908  0.76961232    -0.08500
C163        C  0.15387851  0.85654461  0.82142719    -0.18800
C164        C  0.13994284  0.84520810  0.84978531    -0.23600
C165        C  0.16501127  0.87119437  0.87640221     0.26800
C166        C  0.15418123  0.85073387  0.90451388    -0.20400
C167        C  0.17390609  0.87474926  0.93048533    -0.10000
C168        C  0.20469149  0.92007149  0.92899340    -0.10600
C169        C  0.21639586  0.94043474  0.90081072    -0.03500
C170        C  0.19677032  0.91634141  0.87478520    -0.18600
H171        H  0.14184781  0.82274175  0.72072797     0.10500
H172        H  0.18408359  0.85628408  0.76619636     0.10600
H173        H  0.06254634  0.80430114  0.81604603     0.10200
H174        H  0.02050653  0.77041246  0.77085188     0.11300
H175        H  0.18666068  0.88417007  0.81726312     0.11400
H176        H  0.10891984  0.81518235  0.85394543     0.13300
H177        H  0.12966932  0.81611224  0.90646086     0.09800
H178        H  0.16395993  0.85802899  0.95181232     0.11900
H179        H  0.23983831  0.97534625  0.89889099     0.08500
H180        H  0.20532390  0.93372999  0.85371205     0.11300
C181        C  0.99998800  0.63539938  0.66774204    -0.03300
C182        C  0.96173224  0.59847530  0.67869469    -0.05900
C183        C  0.95835889  0.55696049  0.67915070    -0.21000
C184        C  0.99328076  0.55141452  0.66906473     0.24700
C185        C  0.03151809  0.58830602  0.65791137    -0.18600
C186        C  0.03480412  0.62981006  0.65730179    -0.08500
C187        C  0.98792283  0.50649657  0.66955887    -0.18800
C188        C  0.02218501  0.49899061  0.67050563    -0.23600
C189        C  0.01704530  0.45416163  0.67120614     0.26800
C190        C  0.05191042  0.44926690  0.68244476    -0.20400
C191        C  0.04910460  0.40800942  0.68279698    -0.10000
C192        C  0.01144581  0.37063820  0.67158789    -0.10600
C193        C  0.97653907  0.37549428  0.66020710    -0.03500
C194        C  0.97928779  0.41677502  0.65995312    -0.18600
H195        H  0.93417611  0.60154511  0.68672967     0.10500
H196        H  0.92838206  0.52906001  0.68757720     0.10600
H197        H  0.05861693  0.58521897  0.64905432     0.10200
H198        H  0.06460579  0.65750546  0.64853187     0.11300
H199        H  0.95445784  0.47884992  0.67068447     0.11400
H200        H  0.05553801  0.52673207  0.67225276     0.13300
H201        H  0.08150883  0.47753450  0.69101893     0.09800
H202        H  0.07670498  0.40552486  0.69157638     0.11900
H203        H  0.94720759  0.34745097  0.65117466     0.08500
H204        H  0.95224154  0.41929864  0.65026702     0.11300
C205        C  0.00228615  0.13607601  0.66523681    -0.03300
C206        C  0.96352263  0.09814393  0.65600000    -0.05900
C207        C  0.96137427  0.05723567  0.65554773    -0.21000
C208        C  0.99801263  0.05334095  0.66391793     0.24700
C209        C  0.03689481  0.09130171  0.67320392    -0.18600
C210        C  0.03896606  0.13223276  0.67382186    -0.08500
C211        C  0.99357484  0.00889356  0.66388473    -0.18800
C212        C  0.02811144  0.00195417  0.66212898    -0.23600
C213        C  0.02314057  0.95726681  0.66228732     0.26800
C214        C  0.05649523  0.95137218  0.64956389    -0.20400
C215        C  0.05333654  0.90995811  0.64969127    -0.10000
C216        C  0.01686025  0.87359076  0.66285152    -0.10600
C217        C  0.98365941  0.87957635  0.67585919    -0.03500
C218        C  0.98678995  0.92094189  0.67569064    -0.18600
H219        H  0.93458966  0.09992920  0.64943944     0.10500
H220        H  0.93091059  0.02846402  0.64858539     0.10600
H221        H  0.06542124  0.08951126  0.68068117     0.10200
H222        H  0.06924325  0.16082897  0.68119282     0.11300
H223        H  0.96026833  0.98087660  0.66398496     0.11400
H224        H  0.06114835  0.02973268  0.65908583     0.13300
H225        H  0.08503459  0.97889595  0.63935950     0.09800
H226        H  0.07959962  0.90651697  0.63961748     0.11900
H227        H  0.95532017  0.85233594  0.68643045     0.08500
H228        H  0.96113172  0.92437750  0.68665061     0.11300
C229        C  0.21439911  0.27983471  0.41239959    -0.03300
C230        C  0.22512034  0.26531109  0.43875274    -0.05900
C231        C  0.21010834  0.27069465  0.46648529    -0.21000
C232        C  0.18366086  0.29035950  0.46868634     0.24700
C233        C  0.17399213  0.30619179  0.44240811    -0.18600
C234        C  0.18913853  0.30088461  0.41459288    -0.08500
C235        C  0.16685891  0.29314215  0.49876294    -0.18800
C236        C  0.13155109  0.29836164  0.50328751    -0.23600
C237        C  0.11183908  0.29557852  0.53332219     0.26800
C238        C  0.06729158  0.28436150  0.53498896    -0.20400
C239        C  0.04646876  0.27840696  0.56265113    -0.10000
C240        C  0.06986656  0.28408489  0.58942681    -0.10600
C241        C  0.11500403  0.29727941  0.58783487    -0.03500
C242        C  0.13579985  0.30302703  0.56013359    -0.18600
H243        H  0.24468533  0.24915317  0.43796082     0.10500
H244        H  0.21847282  0.25853951  0.48630250     0.10600
H245        H  0.15489423  0.32277718  0.44309169     0.10200
H246        H  0.18054163  0.31275017  0.39476775     0.11300
H247        H  0.18225387  0.28693800  0.51784726     0.11400
H248        H  0.11379928  0.30093799  0.48415463     0.13300
H249        H  0.04812528  0.27896288  0.51477291     0.09800
H250        H  0.01176218  0.26864808  0.56302902     0.11900
H251        H  0.13410821  0.30228687  0.60801689     0.08500
H252        H  0.17057052  0.31324428  0.55994156     0.11300
C253        C  0.27571053  0.06193136  0.08110719    -0.03300
C254        C  0.26417268  0.03979082  0.10867351    -0.05900
C255        C  0.26822442  0.06256044  0.13512316    -0.21000
C256        C  0.28359836  0.10802074  0.13481487     0.24700
C257        C  0.29644779  0.13063939  0.10734401    -0.18600
C258        C  0.29249629  0.10776204  0.08075190    -0.08500
C259        C  0.28568865  0.12988170  0.16377790    -0.18800
C260        C  0.28768536  0.16921096  0.16653147    -0.23600
C261        C  0.28560201  0.18776129  0.19605408     0.26800
C262        C  0.26926009  0.21713047  0.19748909    -0.20400
C263        C  0.26398838  0.23281409  0.22506105    -0.10000
C264        C  0.27534544  0.21973650  0.25182601    -0.10600
C265        C  0.29360185  0.19195378  0.25026396    -0.03500
C266        C  0.29887667  0.17632096  0.22274751    -0.18600
H267        H  0.25120940  0.00452052  0.10983594     0.10500
H268        H  0.25844012  0.04431278  0.15590743     0.10600
H269        H  0.30960747  0.16587925  0.10618179     0.10200
H270        H  0.30175327  0.12579318  0.05989851     0.11300
H271        H  0.28215626  0.11085831  0.18376651     0.11400
H272        H  0.28726298  0.18681374  0.14669799     0.13300
H273        H  0.25935748  0.22698887  0.17728689     0.09800
H274        H  0.25017624  0.25447422  0.22542544     0.11900
H275        H  0.30326329  0.18167546  0.27038179     0.08500
H276        H  0.31334847  0.15528116  0.22259764     0.11300
C277        C  0.94079535  0.72565113  0.58743783    -0.03300
C278        C  0.96339779  0.73467317  0.56011805    -0.05900
C279        C  0.94113802  0.72933287  0.53309670    -0.21000
C280        C  0.89579353  0.71515491  0.53259499     0.24700
C281        C  0.87275259  0.70473540  0.55990272    -0.18600
C282        C  0.89508513  0.71006072  0.58700641    -0.08500
C283        C  0.87450149  0.71229132  0.50310833    -0.18800
C284        C  0.83559808  0.71124618  0.49959694    -0.23600
C285        C  0.81747650  0.71372217  0.46988851     0.26800
C286        C  0.78712067  0.72891802  0.46854611    -0.20400
C287        C  0.77145496  0.73463203  0.44104567    -0.10000
C288        C  0.78539733  0.72475702  0.41418551    -0.10600
C289        C  0.81428399  0.70771083  0.41554528    -0.03500
C290        C  0.83007732  0.70213942  0.44304517    -0.18600
H291        H  0.99857326  0.74657783  0.55957281     0.10500
H292        H  0.95971634  0.73723819  0.51248009     0.10600
H293        H  0.83758462  0.69243590  0.56061099     0.10200
H294        H  0.87662900  0.70256243  0.60764526     0.11300
H295        H  0.89369154  0.71469839  0.48348213     0.11400
H296        H  0.81791994  0.71240037  0.51911435     0.13300
H297        H  0.77635296  0.73753140  0.48882870     0.09800
H298        H  0.74886333  0.74738744  0.44082990     0.11900
H299        H  0.82536066  0.69936643  0.39529941     0.08500
H300        H  0.85207393  0.68875404  0.44302957     0.11300
C301        C  0.86706765  0.86482958  0.33098288    -0.03300
C302        C  0.90314732  0.86597178  0.31632673    -0.05900
C303        C  0.94381964  0.90496285  0.31500283    -0.21000
C304        C  0.94934455  0.94381382  0.32803915     0.24700
C305        C  0.91331245  0.94277405  0.34280344    -0.18600
C306        C  0.87258552  0.90369703  0.34417598    -0.08500
C307        C  0.99369176  0.98398103  0.32703610    -0.18800
C308        C  0.00042603  0.02523900  0.32942728    -0.23600
C309        C  0.04513102  0.06499573  0.32898415     0.26800
C310        C  0.04970664  0.10539006  0.31972925    -0.20400
C311        C  0.09115426  0.14367131  0.31972810    -0.10000
C312        C  0.12885926  0.14245372  0.32940657    -0.10600
C313        C  0.12421248  0.10205169  0.33887484    -0.03500
C314        C  0.08284902  0.06377363  0.33872268    -0.18600
H315        H  0.90005511  0.83664696  0.30590347     0.10500
H316        H  0.97110137  0.90478859  0.30370054     0.10600
H317        H  0.91661728  0.97168102  0.35391682     0.10200
H318        H  0.84555259  0.90386061  0.35582583     0.11300
H319        H  0.02164577  0.97921721  0.32295849     0.11400
H320        H  0.97230696  0.03041077  0.33052074     0.13300
H321        H  0.02113865  0.10729536  0.31239702     0.09800
H322        H  0.09355613  0.17432136  0.31243022     0.11900
H323        H  0.15251875  0.10000825  0.34663979     0.08500
H324        H  0.08049541  0.03358640  0.34693415     0.11300
C325        C  0.63236457  0.63922154  0.33672282    -0.03300
C326        C  0.59546253  0.63857650  0.34971404    -0.05900
C327        C  0.55434583  0.59996674  0.34979328    -0.21000
C328        C  0.54910929  0.56097578  0.33716241     0.24700
C329        C  0.58599667  0.56153511  0.32408387    -0.18600
C330        C  0.62716585  0.60022616  0.32394981    -0.08500
C331        C  0.50434010  0.52117495  0.33698000    -0.18800
C332        C  0.49697053  0.47966294  0.33462262    -0.23600
C333        C  0.45196488  0.44019483  0.33465529     0.26800
C334        C  0.44679295  0.39955850  0.34389827    -0.20400
C335        C  0.40509668  0.36159828  0.34392243    -0.10000
C336        C  0.36762567  0.36332221  0.33429031    -0.10600
C337        C  0.37286488  0.40390757  0.32468197    -0.03500
C338        C  0.41452821  0.44190669  0.32481344    -0.18600
H339        H  0.59822653  0.66800427  0.35968595     0.10500
H340        H  0.52644921  0.60056814  0.35981748     0.10600
H341        H  0.58311262  0.53258709  0.31332139     0.10200
H342        H  0.65482923  0.59967839  0.31352621     0.11300
H343        H  0.47653164  0.52641470  0.34033166     0.11400
H344        H  0.52478592  0.47396797  0.33416118     0.13300
H345        H  0.47511232  0.39721509  0.35130257     0.09800
H346        H  0.40230821  0.33083119  0.35127126     0.11900
H347        H  0.34475908  0.40631873  0.31688639     0.08500
H348        H  0.41730900  0.47226900  0.31659840     0.11300
C349        C  0.71143682  0.92456937  0.07668516    -0.03300
C350        C  0.71833934  0.94838490  0.10332314    -0.05900
C351        C  0.71263376  0.92786383  0.13107416    -0.21000
C352        C  0.70047715  0.88320148  0.13296142     0.24700
C353        C  0.69167770  0.85878317  0.10632467    -0.18600
C354        C  0.69713213  0.87929905  0.07849654    -0.08500
C355        C  0.69836427  0.86396104  0.16306702    -0.18800
C356        C  0.70365606  0.82878076  0.16770732    -0.23600
C357        C  0.70763652  0.81288360  0.19787570     0.26800
C358        C  0.72739674  0.78653904  0.20009115    -0.20400
C359        C  0.73391219  0.77241720  0.22789824    -0.10000
C360        C  0.72057898  0.78408783  0.25430388    -0.10600
C361        C  0.69955224  0.80935239  0.25212731    -0.03500
C362        C  0.69296519  0.82346777  0.22423856    -0.18600
H363        H  0.72897898  0.98322083  0.10276545     0.10500
H364        H  0.71908713  0.94735793  0.15116760     0.10600
H365        H  0.68074971  0.82393375  0.10677987     0.10200
H366        H  0.69122154  0.85993966  0.05840733     0.11300
H367        H  0.69657030  0.88213329  0.18208952     0.11400
H368        H  0.70913573  0.81298774  0.14866139     0.13300
H369        H  0.73872602  0.77755034  0.18022011     0.09800
H370        H  0.75009122  0.75288853  0.22869314     0.11900
H371        H  0.68850907  0.81858244  0.27200750     0.08500
H372        H  0.67630207  0.84247429  0.22358123     0.11300
loop_ 
_geom_bond_atom_site_label_1 
_geom_bond_atom_site_label_2 
_geom_bond_distance 
_geom_bond_site_symmetry_2 
_ccdc_geom_bond_type 
O1           Ni9   1.919       .  S
O1           C11   1.282       .  A
O2           Ni9   1.918       .  S
O2           C12   1.282       .  A
O3           Ni9   1.922       .  S
O3           C13   1.283       .  A
O4           Ni9   1.923       .  S
O4           C14   1.283       .  A
O5          Ni10   1.917       .  S
O5           C14   1.282       .  A
O6          Ni10   1.919       .  S
O6           C13   1.282       .  A
O7          Ni10   1.919       .  S
O7           C12   1.282       .  A
O8          Ni10   1.917       .  S
O8           C11   1.282       .  A
Ni9         Ni10   2.385       .  S
C11         C301   1.482       .  S
C12         C325   1.484       .  S
C13         C288   1.485       .  S
C14         C360   1.485       .  S
O15         Ni23   1.916       .  S
O15          C25   1.282       .  A
O16         Ni23   1.918       .  S
O16          C26   1.282       .  A
O17         Ni23   1.919       .  S
O17          C27   1.282       .  A
O18         Ni23   1.917       .  S
O18          C28   1.282       .  A
O19         Ni24   1.923       .  S
O19          C28   1.283       .  A
O20         Ni24   1.923       .  S
O20          C27   1.283       .  A
O21         Ni24   1.920       .  S
O21          C26   1.282       .  A
O22         Ni24   1.919       .  S
O22          C25   1.282       .  A
Ni23        Ni24   2.385       .  S
C25         C312   1.482       .  S
C26         C336   1.484       .  S
C27         C229   1.487       .  S
C28         C264   1.485       .  S
O29         Ni37   1.918       .  S
O29          C39   1.282       .  A
O30         Ni37   1.919       .  S
O30          C40   1.282       .  A
O31         Ni37   1.917       .  S
O31          C41   1.282   1_455  A
O32         Ni37   1.916       .  S
O32          C42   1.281       .  A
O33         Ni38   1.923   1_455  S
O33          C42   1.283       .  A
O34         Ni38   1.922       .  S
O34          C41   1.283       .  A
O35         Ni38   1.918       .  S
O35          C40   1.282   1_655  A
O36         Ni38   1.915       .  S
O36          C39   1.281   1_655  A
Ni37        Ni38   2.386   1_455  S
C39         C216   1.480       .  S
C40         C181   1.483   1_455  S
C41         C277   1.485       .  S
C42         C157   1.484       .  S
O43         Ni51   1.916       .  S
O43          C53   1.281       .  A
O44         Ni51   1.918       .  S
O44          C54   1.282       .  A
O45         Ni51   1.926       .  S
O45          C55   1.284   1_455  A
O46         Ni51   1.924       .  S
O46          C56   1.283       .  A
O47         Ni52   1.921   1_455  S
O47          C56   1.283       .  A
O48         Ni52   1.922       .  S
O48          C55   1.282       .  A
O49         Ni52   1.919       .  S
O49          C54   1.282   1_655  A
O50         Ni52   1.916       .  S
O50          C53   1.282   1_655  A
Ni51        Ni52   2.385   1_455  S
C53         C205   1.480       .  S
C54         C192   1.484       .  S
C55         C144   1.489       .  S
C56         C240   1.487       .  S
O57         Ni65   1.923       .  S
O57          C67   1.283   1_544  A
O58         Ni65   1.923       .  S
O58          C68   1.282   1_544  A
O59         Ni65   1.916   1_565  S
O59          C69   1.282       .  A
O60         Ni65   1.922   1_556  S
O60          C70   1.282       .  A
O61         Ni66   1.925       .  S
O61          C70   1.284   1_565  A
O62         Ni66   1.926   1_554  S
O62          C69   1.283       .  A
O63         Ni66   1.914       .  S
O63          C68   1.281       .  A
O64         Ni66   1.911       .  S
O64          C67   1.280       .  A
Ni65        Ni66   2.386   1_544  S
C67          C85   1.481   1_556  S
C68         C109   1.478       .  S
C69         C349   1.485       .  S
C70         C133   1.489       .  S
O71         Ni79   1.919       .  S
O71          C81   1.282       .  A
O72         Ni79   1.920       .  S
O72          C82   1.282       .  A
O73         Ni79   1.912       .  S
O73          C83   1.281   1_565  A
O74         Ni79   1.916   1_556  S
O74          C84   1.281       .  A
O75         Ni80   1.922   1_565  S
O75          C84   1.283       .  A
O76         Ni80   1.926   1_554  S
O76          C83   1.283       .  A
O77         Ni80   1.918       .  S
O77          C82   1.281   1_546  A
O78         Ni80   1.914       .  S
O78          C81   1.281   1_546  A
Ni79        Ni80   2.386   1_564  S
C81          C96   1.480       .  S
C82         C120   1.480       .  S
C83         C253   1.484       .  S
C84         C168   1.483       .  S
C85          C86   1.406   1_554  A
C85          C90   1.406   1_565  A
C86          C87   1.396       .  A
C86          H99   1.083       .  S
C87          C88   1.401   1_556  A
C87         H100   1.083       .  S
C88          C89   1.407   1_565  A
C88          C91   1.483       .  S
C89          C90   1.399       .  A
C89         H101   1.082       .  S
C90         H102   1.083       .  S
C91          C92   1.345   1_665  D
C91         H103   1.085       .  S
C92          C93   1.483       .  S
C92         H104   1.085   1_554  S
C93          C94   1.402   1_554  A
C93          C98   1.407   1_545  A
C94          C95   1.397       .  A
C94         H105   1.083       .  S
C95          C96   1.406   1_546  A
C95         H106   1.084       .  S
C96          C97   1.406       .  A
C97          C98   1.399       .  A
C97         H107   1.082       .  S
C98         H108   1.083       .  S
C109        C110   1.405       .  A
C109        C114   1.405   1_566  A
C110        C111   1.397       .  A
C110        H123   1.083       .  S
C111        C112   1.402       .  A
C111        H124   1.083       .  S
C112        C113   1.407   1_566  A
C112        C115   1.483       .  S
C113        C114   1.401       .  A
C113        H125   1.083       .  S
C114        H126   1.083       .  S
C115        C116   1.345   1_556  D
C115        H127   1.086       .  S
C116        C117   1.484       .  S
C116        H128   1.086       .  S
C117        C118   1.403       .  A
C117        C122   1.406   1_564  A
C118        C119   1.399       .  A
C118        H129   1.083       .  S
C119        C120   1.405       .  A
C119        H130   1.083       .  S
C120        C121   1.406   1_564  A
C121        C122   1.399       .  A
C121        H131   1.083       .  S
C122        H132   1.083       .  S
C133        C134   1.406       .  A
C133        C138   1.408       .  A
C134        C135   1.400       .  A
C134        H147   1.083   1_545  S
C135        C136   1.405       .  A
C135        H148   1.083       .  S
C136        C137   1.408       .  A
C136        C139   1.494       .  S
C137        C138   1.402       .  A
C137        H149   1.082       .  S
C138        H150   1.082       .  S
C139        C140   1.351       .  D
C139        H151   1.084       .  S
C140        C141   1.494       .  S
C140        H152   1.084       .  S
C141        C142   1.405       .  A
C141        C146   1.408       .  A
C142        C143   1.401       .  A
C142        H153   1.082       .  S
C143        C144   1.406       .  A
C143        H154   1.083   1_655  S
C144        C145   1.408       .  A
C145        C146   1.402       .  A
C145        H155   1.082       .  S
C146        H156   1.082       .  S
C157        C158   1.406       .  A
C157        C162   1.406       .  A
C158        C159   1.398       .  A
C158        H171   1.083       .  S
C159        C160   1.403       .  A
C159        H172   1.084       .  S
C160        C161   1.409       .  A
C160        C163   1.489       .  S
C161        C162   1.400       .  A
C161        H173   1.081       .  S
C162        H174   1.083       .  S
C163        C164   1.347       .  D
C163        H175   1.085       .  S
C164        C165   1.489       .  S
C164        H176   1.086       .  S
C165        C166   1.403       .  A
C165        C170   1.409       .  A
C166        C167   1.398       .  A
C166        H177   1.084       .  S
C167        C168   1.406       .  A
C167        H178   1.082       .  S
C168        C169   1.406       .  A
C169        C170   1.400       .  A
C169        H179   1.083       .  S
C170        H180   1.081       .  S
C181        C182   1.406       .  A
C181        C186   1.406   1_655  A
C182        C183   1.398       .  A
C182        H195   1.083       .  S
C183        C184   1.403       .  A
C183        H196   1.083       .  S
C184        C185   1.408   1_655  A
C184        C187   1.488       .  S
C185        C186   1.399       .  A
C185        H197   1.081       .  S
C186        H198   1.083       .  S
C187        C188   1.348   1_655  D
C187        H199   1.085       .  S
C188        C189   1.488       .  S
C188        H200   1.085       .  S
C189        C190   1.403       .  A
C189        C194   1.408   1_455  A
C190        C191   1.398       .  A
C190        H201   1.084       .  S
C191        C192   1.406       .  A
C191        H202   1.083       .  S
C192        C193   1.406   1_455  A
C193        C194   1.400       .  A
C193        H203   1.083       .  S
C194        H204   1.081       .  S
C205        C206   1.405   1_455  A
C205        C210   1.406       .  A
C206        C207   1.396       .  A
C206        H219   1.083       .  S
C207        C208   1.403       .  A
C207        H220   1.084       .  S
C208        C209   1.408   1_655  A
C208        C211   1.485       .  S
C209        C210   1.398       .  A
C209        H221   1.081       .  S
C210        H222   1.083       .  S
C211        C212   1.347   1_655  D
C211        H223   1.085   1_545  S
C212        C213   1.485   1_545  S
C212        H224   1.085       .  S
C213        C214   1.403       .  A
C213        C218   1.408   1_455  A
C214        C215   1.398       .  A
C214        H225   1.084       .  S
C215        C216   1.406       .  A
C215        H226   1.083       .  S
C216        C217   1.405   1_455  A
C217        C218   1.397       .  A
C217        H227   1.083       .  S
C218        H228   1.081       .  S
C229        C230   1.405       .  A
C229        C234   1.407       .  A
C230        C231   1.398       .  A
C230        H243   1.083       .  S
C231        C232   1.404       .  A
C231        H244   1.084       .  S
C232        C233   1.409       .  A
C232        C235   1.493       .  S
C233        C234   1.403       .  A
C233        H245   1.081       .  S
C234        H246   1.082       .  S
C235        C236   1.350       .  D
C235        H247   1.086       .  S
C236        C237   1.493       .  S
C236        H248   1.085       .  S
C237        C238   1.404       .  A
C237        C242   1.409       .  A
C238        C239   1.400       .  A
C238        H249   1.083       .  S
C239        C240   1.406       .  A
C239        H250   1.083       .  S
C240        C241   1.407       .  A
C241        C242   1.402       .  A
C241        H251   1.083       .  S
C242        H252   1.082       .  S
C253        C254   1.405       .  A
C253        C258   1.407       .  A
C254        C255   1.395       .  A
C254        H267   1.084       .  S
C255        C256   1.403       .  A
C255        H268   1.083       .  S
C256        C257   1.409       .  A
C256        C259   1.489       .  S
C257        C258   1.403       .  A
C257        H269   1.082       .  S
C258        H270   1.082       .  S
C259        C260   1.349       .  D
C259        H271   1.084       .  S
C260        C261   1.491       .  S
C260        H272   1.084       .  S
C261        C262   1.404       .  A
C261        C266   1.408       .  A
C262        C263   1.401       .  A
C262        H273   1.083       .  S
C263        C264   1.406       .  A
C263        H274   1.083       .  S
C264        C265   1.406       .  A
C265        C266   1.398       .  A
C265        H275   1.083       .  S
C266        H276   1.081       .  S
C277        C278   1.405       .  A
C277        C282   1.407       .  A
C278        C279   1.397       .  A
C278        H291   1.083       .  S
C279        C280   1.404       .  A
C279        H292   1.083       .  S
C280        C281   1.409       .  A
C280        C283   1.492       .  S
C281        C282   1.402       .  A
C281        H293   1.081       .  S
C282        H294   1.083       .  S
C283        C284   1.350       .  D
C283        H295   1.084       .  S
C284        C285   1.492       .  S
C284        H296   1.084       .  S
C285        C286   1.405       .  A
C285        C290   1.409       .  A
C286        C287   1.399       .  A
C286        H297   1.083       .  S
C287        C288   1.405       .  A
C287        H298   1.083       .  S
C288        C289   1.406       .  A
C289        C290   1.400       .  A
C289        H299   1.083       .  S
C290        H300   1.081       .  S
C301        C302   1.405       .  A
C301        C306   1.406       .  A
C302        C303   1.397       .  A
C302        H315   1.083       .  S
C303        C304   1.403       .  A
C303        H316   1.083       .  S
C304        C305   1.408       .  A
C304        C307   1.486       .  S
C305        C306   1.400       .  A
C305        H317   1.082       .  S
C306        H318   1.083       .  S
C307        C308   1.347   1_665  D
C307        H319   1.085   1_655  S
C308        C309   1.486       .  S
C308        H320   1.085   1_455  S
C309        C310   1.403       .  A
C309        C314   1.407       .  A
C310        C311   1.399       .  A
C310        H321   1.083       .  S
C311        C312   1.406       .  A
C311        H322   1.084       .  S
C312        C313   1.406       .  A
C313        C314   1.397       .  A
C313        H323   1.082       .  S
C314        H324   1.082       .  S
C325        C326   1.406       .  A
C325        C330   1.406       .  A
C326        C327   1.398       .  A
C326        H339   1.083       .  S
C327        C328   1.403       .  A
C327        H340   1.084       .  S
C328        C329   1.408       .  A
C328        C331   1.488       .  S
C329        C330   1.400       .  A
C329        H341   1.081       .  S
C330        H342   1.083       .  S
C331        C332   1.348       .  D
C331        H343   1.086       .  S
C332        C333   1.488       .  S
C332        H344   1.085       .  S
C333        C334   1.403       .  A
C333        C338   1.408       .  A
C334        C335   1.399       .  A
C334        H345   1.083       .  S
C335        C336   1.406       .  A
C335        H346   1.083       .  S
C336        C337   1.406       .  A
C337        C338   1.399       .  A
C337        H347   1.083       .  S
C338        H348   1.082       .  S
C349        C350   1.406       .  A
C349        C354   1.406       .  A
C350        C351   1.398       .  A
C350        H363   1.083       .  S
C351        C352   1.403       .  A
C351        H364   1.083       .  S
C352        C353   1.409       .  A
C352        C355   1.491       .  S
C353        C354   1.402       .  A
C353        H365   1.082       .  S
C354        H366   1.083       .  S
C355        C356   1.349       .  D
C355        H367   1.084       .  S
C356        C357   1.492       .  S
C356        H368   1.085       .  S
C357        C358   1.404       .  A
C357        C362   1.410       .  A
C358        C359   1.398       .  A
C358        H369   1.083       .  S
C359        C360   1.405       .  A
C359        H370   1.083       .  S
C360        C361   1.406       .  A
C361        C362   1.402       .  A
C361        H371   1.083       .  S
C362        H372   1.081       .  S
