geometry optimzed in LAMMPS
_audit_creation_date              2020-12-01 
_audit_creation_method            'lammps2cif' 
_symmetry_space_group_name_H-M    'P1' 
_symmetry_Int_Tables_number       1 
_symmetry_cell_setting            triclinic 
loop_ 
_symmetry_equiv_pos_as_xyz 
  x,y,z 
_cell_length_a                    40.40510884 
_cell_length_b                    40.42233389204181 
_cell_length_c                    24.344571084411108 
_cell_angle_alpha                 90.13242850640859 
_cell_angle_beta                  90.00292810244837 
_cell_angle_gamma                 119.39461805364796 
loop_ 
_atom_site_label 
_atom_site_type_symbol 
_atom_site_fract_x 
_atom_site_fract_y 
_atom_site_fract_z 
_atom_site_charge 
O1          O  0.42303078  0.44940335  0.62054985    -0.57500
C2          C  0.31425438  0.37791291  0.70006479     0.75100
O3          O  0.42130231  0.35268119  0.65363910    -0.58700
C4          C  0.42093767  0.43423056  0.57430460     0.75100
C5          C  0.43974049  0.43285464  0.76072685     0.77500
Cd6        Cd  0.38911296  0.38969471  0.67245386     1.37500
O7          O  0.32831254  0.38829273  0.65263746    -0.57500
O8          O  0.42867772  0.44723797  0.72399530    -0.56300
C9          C  0.39127401  0.32129188  0.64620331     0.77400
O10         O  0.42697251  0.39731958  0.75764520    -0.58700
O11         O  0.33420531  0.37169789  0.73411748    -0.57200
O12         O  0.40263987  0.39834438  0.57289785    -0.57200
O13         O  0.36021220  0.32108540  0.65427576    -0.56300
O14         O  0.69707018  0.07645454  0.01078378    -0.57500
C15         C  0.60814989  0.02965134  0.09103283     0.75100
O16         O  0.60382343  0.98594238  0.90509565    -0.58700
C17         C  0.71064066  0.08115654  0.96283739     0.75100
C18         C  0.63738855  0.94477980  0.01947442     0.77500
Cd19       Cd  0.63850754  0.01525503  0.99235074     1.37500
O20         O  0.63098113  0.01668200  0.09317490    -0.57500
O21         O  0.66800819  0.97417394  0.00624371    -0.56300
C22         C  0.58463166  0.00305516  0.90553270     0.77400
O23         O  0.60765670  0.94769093  0.01756702    -0.58700
O24         O  0.60116039  0.03761132  0.04375972    -0.57200
O25         O  0.69163245  0.05481536  0.92889235    -0.57200
O26         O  0.59063676  0.02535314  0.94543192    -0.56300
O27         O  0.04392177  0.42797940  0.92067177    -0.57500
C28         C  0.07658633  0.38505103  0.80440127     0.75100
O29         O  0.96261474  0.35114661  0.89520847    -0.58700
C30         C  0.03212369  0.45175440  0.92074215     0.75100
C31         C  0.00411071  0.43640857  0.74111111     0.77500
Cd32       Cd  0.01314826  0.39673490  0.83309440     1.37500
O33         O  0.06721170  0.38579212  0.85376752    -0.57500
O34         O  0.03584359  0.44535756  0.76294078    -0.56300
C35         C  0.94644483  0.32465403  0.86053932     0.77400
O36         O  0.97521779  0.40873364  0.76260104    -0.58700
O37         O  0.05592459  0.38836188  0.76835921    -0.57200
O38         O  0.01174526  0.45020008  0.88028892    -0.57200
O39         O  0.96102398  0.33132265  0.81309472    -0.56300
O40         O  0.32919515  0.96124470  0.50724844    -0.57500
C41         C  0.42108131  0.99909308  0.59280700     0.75100
O42         O  0.42481632  0.03954950  0.40288398    -0.58700
C43         C  0.32011362  0.95489919  0.45705957     0.75100
C44         C  0.39204323  0.08517056  0.51616933     0.77500
Cd45       Cd  0.39346137  0.01584302  0.49280734     1.37500
O46         O  0.41553164  0.02716604  0.58865184    -0.57500
O47         O  0.42166438  0.08511243  0.49952147    -0.56300
C48         C  0.44867300  0.02806382  0.40855160     0.77400
O49         O  0.36242940  0.05305225  0.52014899    -0.58700
O50         O  0.41237922  0.97753096  0.55121720    -0.57200
O51         O  0.34475180  0.97698261  0.42324583    -0.57200
O52         O  0.44732702  0.01167995  0.45337694    -0.56300
O53         O  0.68693943  0.62603484  0.15220637    -0.57500
C54         C  0.60090676  0.59334368  0.07339351     0.75100
O55         O  0.60561163  0.62635062  0.26780231    -0.58700
C56         C  0.70523538  0.64044261  0.19596303     0.75100
C57         C  0.63571523  0.70755644  0.15095173     0.77500
Cd58       Cd  0.63239546  0.63555495  0.17308854     1.37500
O59         O  0.60795941  0.57861157  0.11438496    -0.57500
O60         O  0.66414500  0.70287920  0.14321686    -0.56300
C61         C  0.57849832  0.59313264  0.25905730     0.77400
O62         O  0.60648813  0.67952584  0.17079983    -0.58700
O63         O  0.60965374  0.62789080  0.07806274    -0.57200
O64         O  0.69039082  0.65360489  0.22902231    -0.57200
O65         O  0.57645314  0.58016417  0.21119908    -0.56300
O66         O  0.97951837  0.59126700  0.39268893    -0.57500
C67         C  0.94700807  0.64005394  0.29758508     0.75100
O68         O  0.07142546  0.70733313  0.30184254    -0.58700
C69         C  0.00801560  0.59431414  0.41878483     0.75100
C70         C  0.04249623  0.61348769  0.23781909     0.77500
Cd71       Cd  0.01829307  0.64365227  0.32687142     1.37500
O72         O  0.96756018  0.66092061  0.33643468    -0.57500
O73         O  0.04232001  0.60307837  0.28683322    -0.56300
C74         C  0.07789429  0.72068347  0.35010266     0.77400
O75         O  0.03318815  0.63883127  0.23080759    -0.58700
O76         O  0.95907671  0.62047322  0.27310022    -0.57200
O77         O  0.04017202  0.61987659  0.40240206    -0.57200
O78         O  0.05565644  0.69924894  0.38685247    -0.56300
C79         C  0.74149761  0.64108885  0.20803545    -0.01000
C80         C  0.75470479  0.62233715  0.17338570    -0.11400
C81         C  0.78793172  0.62121590  0.18581115    -0.17900
C82         C  0.80927251  0.63908907  0.23358424     0.04500
C83         C  0.79615744  0.65881732  0.26786584     0.18700
C84         C  0.76258157  0.65949179  0.25502190    -0.19300
C85         C  0.81651853  0.67769371  0.31501281    -0.20600
C86         C  0.84972824  0.67748831  0.32903761    -0.19100
C87         C  0.86323682  0.65804953  0.29662913     0.20100
C88         C  0.84313172  0.63826572  0.24861978     0.02200
C89         C  0.85775569  0.61842148  0.21816043    -0.13800
C90         C  0.89112419  0.61873431  0.23444175    -0.11500
C91         C  0.91110229  0.63886719  0.28129852     0.01800
C92         C  0.89685157  0.65834769  0.31219976    -0.23700
H93         H  0.73900535  0.60797893  0.13668215     0.09800
H94         H  0.79614679  0.60617952  0.15723449     0.13300
H95         H  0.75274743  0.67427868  0.28192754     0.12100
H96         H  0.80673087  0.69284170  0.34123069     0.13200
H97         H  0.86488712  0.69253369  0.36572838     0.12300
H98         H  0.84403339  0.60230415  0.18175877     0.09400
H99         H  0.90147998  0.60333756  0.20988132     0.12600
H100        H  0.91196102  0.67382131  0.34868587     0.14500
C101        C  0.11058553  0.75844041  0.36335720    -0.01000
C102        C  0.13373415  0.78254998  0.32168996    -0.09000
C103        C  0.16688890  0.81636613  0.33441245    -0.17900
C104        C  0.17822306  0.82694862  0.38963862     0.04500
C105        C  0.15386817  0.80293898  0.43165477     0.18700
C106        C  0.12044634  0.76934672  0.41823947    -0.19300
C107        C  0.16342105  0.81200250  0.48698404    -0.20600
C108        C  0.19711321  0.84404721  0.50173046    -0.19100
C109        C  0.22218435  0.86781312  0.46153329     0.20100
C110        C  0.21308786  0.85991243  0.40485120     0.02200
C111        C  0.23970984  0.88492151  0.36612036    -0.13800
C112        C  0.27408094  0.91591074  0.38312217    -0.11500
C113        C  0.28302663  0.92312544  0.43905409     0.01800
C114        C  0.25668076  0.89914046  0.47795198    -0.23700
H115        H  0.12659914  0.77489624  0.27892570     0.09800
H116        H  0.18334747  0.83322332  0.30016084     0.13300
H117        H  0.10272739  0.75093840  0.45083416     0.12100
H118        H  0.14491354  0.79387507  0.51916841     0.13200
H119        H  0.20385603  0.84999666  0.54497136     0.12300
H120        H  0.23503708  0.88105748  0.32246687     0.09400
H121        H  0.29393477  0.93407882  0.35220358     0.12600
H122        H  0.26327362  0.90449245  0.52133411     0.14500
C123        C  0.00178005  0.45750293  0.69296688    -0.01000
C124        C  0.96690648  0.45053531  0.67079569    -0.09000
C125        C  0.96569471  0.47136684  0.62553931    -0.17900
C126        C  0.99955937  0.49995784  0.60121805     0.04500
C127        C  0.03467825  0.50667117  0.62425116     0.18700
C128        C  0.03540826  0.48541678  0.66902539    -0.19300
C129        C  0.06913859  0.53497071  0.60307887    -0.20600
C130        C  0.06968150  0.55739614  0.55981832    -0.19100
C131        C  0.03579412  0.55157283  0.53589541     0.20100
C132        C  0.00015554  0.52249540  0.55548145     0.02200
C133        C  0.96698874  0.51741421  0.52820976    -0.13800
C134        C  0.96932953  0.54060681  0.48390451    -0.11500
C135        C  0.00464896  0.56955963  0.46567270     0.01800
C136        C  0.03763007  0.57475479  0.49206877    -0.23700
H137        H  0.94049348  0.42911613  0.68868513     0.09800
H138        H  0.93794769  0.46482366  0.61091123     0.13300
H139        H  0.06257603  0.49099391  0.68566499     0.12100
H140        H  0.09594023  0.54013376  0.62057265     0.13200
H141        H  0.09688540  0.57939837  0.54478492     0.12300
H142        H  0.93895999  0.49561194  0.53991580     0.09400
H143        H  0.94341442  0.53582071  0.46383673     0.12600
H144        H  0.06514056  0.59690192  0.47816503     0.14500
C145        C  0.05089429  0.59561704  0.19083436    -0.01000
C146        C  0.06291614  0.56887167  0.19905469    -0.09000
C147        C  0.06525861  0.54788841  0.15492963    -0.17900
C148        C  0.05480419  0.55258200  0.10117904     0.04500
C149        C  0.04447752  0.58115318  0.09295700     0.18700
C150        C  0.04322678  0.60263177  0.13735834    -0.19300
C151        C  0.03364119  0.58698763  0.04091135    -0.20600
C152        C  0.03090665  0.56373046  0.99713314    -0.19100
C153        C  0.03932596  0.53432716  0.00421752     0.20100
C154        C  0.05250440  0.52896043  0.05584122     0.02200
C155        C  0.06148101  0.49934220  0.06011111    -0.13800
C156        C  0.05582302  0.47505633  0.01578902    -0.11500
C157        C  0.04102268  0.47937757  0.96598427     0.01800
C158        C  0.03360350  0.50958858  0.96018526    -0.23700
H159        H  0.06941981  0.56327683  0.24001243     0.09800
H160        H  0.07398454  0.52731197  0.16455927     0.13300
H161        H  0.03407895  0.62342453  0.13056188     0.12100
H162        H  0.02602407  0.60892896  0.03439682     0.13200
H163        H  0.02131599  0.56825356  0.95771837     0.12300
H164        H  0.07237100  0.49385129  0.09731073     0.09400
H165        H  0.06216200  0.45214051  0.02106201     0.12600
H166        H  0.02269642  0.51350762  0.92149092     0.14500
C167        C  0.55688207  0.99785926  0.86194603    -0.01000
C168        C  0.54738596  0.97039588  0.82078476    -0.09000
C169        C  0.52205718  0.96650198  0.77876544    -0.17900
C170        C  0.50561992  0.99038939  0.77636327     0.04500
C171        C  0.51466514  0.01751573  0.81915085     0.18700
C172        C  0.53989816  0.02089429  0.86122126    -0.19300
C173        C  0.49903825  0.04167420  0.81931227    -0.20600
C174        C  0.47547730  0.04038417  0.77687192    -0.19100
C175        C  0.46712909  0.01505713  0.73303691     0.20100
C176        C  0.48144623  0.98916896  0.73247403     0.02200
C177        C  0.47190530  0.96414709  0.68708894    -0.13800
C178        C  0.45086628  0.96626410  0.64293261    -0.11500
C179        C  0.43846215  0.99309810  0.64265372     0.01800
C180        C  0.44570489  0.01656539  0.68868169    -0.23700
H181        H  0.55975884  0.95193013  0.82083754     0.09800
H182        H  0.51628260  0.94486260  0.74848184     0.13300
H183        H  0.54686509  0.04212023  0.89305648     0.12100
H184        H  0.50561012  0.06219783  0.85205689     0.13200
H185        H  0.46442944  0.05999038  0.77770361     0.12300
H186        H  0.48112919  0.94334594  0.68377156     0.09400
H187        H  0.44543885  0.94764861  0.60797805     0.12600
H188        H  0.43591079  0.03719482  0.68911546     0.14500
C189        C  0.58937418  0.03393577  0.14054915    -0.01000
C190        C  0.59491974  0.02200155  0.19198543    -0.09000
C191        C  0.57455378  0.02286152  0.23785729    -0.17900
C192        C  0.54769644  0.03563917  0.23359782     0.04500
C193        C  0.54286257  0.04848409  0.18145679     0.18700
C194        C  0.56369837  0.04767795  0.13585349    -0.19300
C195        C  0.51666925  0.06134690  0.17473258    -0.20600
C196        C  0.49452105  0.06110364  0.21852988    -0.19100
C197        C  0.49801163  0.04799955  0.27016973     0.20100
C198        C  0.52492531  0.03544664  0.27871618     0.02200
C199        C  0.52730435  0.02261838  0.33180315    -0.13800
C200        C  0.50313877  0.02112139  0.37389395    -0.11500
C201        C  0.47601780  0.03256445  0.36482884     0.01800
C202        C  0.47411766  0.04665656  0.31308139    -0.23700
H203        H  0.61455040  0.01118940  0.19664783     0.09800
H204        H  0.58008061  0.01278733  0.27579660     0.13300
H205        H  0.55916720  0.05695611  0.09618232     0.12100
H206        H  0.51293606  0.07123967  0.13509242     0.13200
H207        H  0.47416263  0.07081165  0.21176927     0.12300
H208        H  0.54715679  0.01304960  0.34200428     0.09400
H209        H  0.50539276  0.01040312  0.41365144     0.12600
H210        H  0.45329914  0.05570337  0.30569123     0.14500
C211        C  0.63621466  0.90924453  0.03779556    -0.01000
C212        C  0.60272081  0.87976237  0.06000500    -0.09000
C213        C  0.60152081  0.84690628  0.08030952    -0.17900
C214        C  0.63399200  0.84224886  0.07885689     0.04500
C215        C  0.66773043  0.87190147  0.05523605     0.18700
C216        C  0.66861271  0.90501185  0.03536033    -0.19300
C217        C  0.70043142  0.86836782  0.05163345    -0.20600
C218        C  0.70036836  0.83592415  0.07069174    -0.19100
C219        C  0.66772049  0.80630834  0.09439942     0.20100
C220        C  0.63414786  0.80917669  0.09945377     0.02200
C221        C  0.60223352  0.77875224  0.12479593    -0.13800
C222        C  0.60328167  0.74644599  0.14259865    -0.11500
C223        C  0.63604646  0.74325562  0.13599732     0.01800
C224        C  0.66836027  0.77359705  0.11252435    -0.23700
H225        H  0.57727367  0.88227264  0.06246323     0.09800
H226        H  0.57469472  0.82566874  0.09673616     0.13300
H227        H  0.69464845  0.92758707  0.01809269     0.12100
H228        H  0.72622541  0.89078959  0.03361423     0.13200
H229        H  0.72608160  0.83398084  0.06681956     0.12300
H230        H  0.57594581  0.77891654  0.13126346     0.09400
H231        H  0.57798290  0.72353649  0.16088915     0.12600
H232        H  0.69394251  0.77152765  0.10746429     0.14500
C233        C  0.74627257  0.11579618  0.94713057    -0.01000
C234        C  0.76199615  0.11894848  0.89483346    -0.09000
C235        C  0.79483631  0.15201418  0.87905581    -0.17900
C236        C  0.81307493  0.18339396  0.91522349     0.04500
C237        C  0.79705729  0.17998601  0.96834121     0.18700
C238        C  0.76414204  0.14645028  0.98375158    -0.19300
C239        C  0.81382574  0.21015788  0.00574970    -0.20600
C240        C  0.84625133  0.24374535  0.99165098    -0.19100
C241        C  0.86273900  0.24810348  0.93971176     0.20100
C242        C  0.84642946  0.21803816  0.90064612     0.02200
C243        C  0.86415901  0.22412168  0.84866786    -0.13800
C244        C  0.89646793  0.25856138  0.83605374    -0.11500
C245        C  0.91239373  0.28808350  0.87462587     0.01800
C246        C  0.89540286  0.28253235  0.92653896    -0.23700
H247        H  0.74876273  0.09572769  0.86572113     0.09800
H248        H  0.80509439  0.15214604  0.83819101     0.13300
H249        H  0.75213757  0.14442650  0.02425263     0.12100
H250        H  0.80173523  0.20778869  0.04625523     0.13200
H251        H  0.85847143  0.26654434  0.02159669     0.12300
H252        H  0.85370883  0.20291008  0.81673469     0.09400
H253        H  0.90904608  0.26206191  0.79570267     0.12600
H254        H  0.90744834  0.30519045  0.95674346     0.14500
C255        C  0.58217698  0.57115879  0.02349289    -0.01000
C256        C  0.57506845  0.58872499  0.97914888    -0.09000
C257        C  0.55413950  0.56758915  0.93397534    -0.17900
C258        C  0.53922952  0.52779073  0.93182939     0.04500
C259        C  0.54758646  0.51022778  0.97614778     0.18700
C260        C  0.56909623  0.53198749  0.02119149    -0.19300
C261        C  0.53356565  0.47092926  0.97593028    -0.20600
C262        C  0.51054132  0.44847089  0.93323190    -0.19100
C263        C  0.50103826  0.46476066  0.88961449     0.20100
C264        C  0.51564983  0.50474198  0.88797797     0.02200
C265        C  0.50541235  0.51986123  0.84299495    -0.13800
C266        C  0.48108401  0.49630376  0.80220471    -0.11500
C267        C  0.46618137  0.45690561  0.80430076     0.01800
C268        C  0.47659913  0.44127750  0.84788203    -0.23700
H269        H  0.58506858  0.61897668  0.97978103     0.09800
H270        H  0.54960383  0.58327627  0.90198988     0.13300
H271        H  0.57457887  0.51815587  0.05532024     0.12100
H272        H  0.53996513  0.45737359  0.00946440     0.13200
H273        H  0.49971745  0.41807755  0.93467877     0.12300
H274        H  0.51540434  0.54974820  0.83814128     0.09400
H275        H  0.47380187  0.50919268  0.76875019     0.12600
H276        H  0.46532874  0.41081439  0.84972017     0.14500
C277        C  0.55110462  0.57012027  0.30226874    -0.01000
C278        C  0.52606331  0.53144155  0.29316957    -0.09000
C279        C  0.50207232  0.50852397  0.33477269    -0.17900
C280        C  0.50227458  0.52366736  0.38724985     0.04500
C281        C  0.52615091  0.56338739  0.39529090     0.18700
C282        C  0.55040746  0.58609090  0.35311099    -0.19300
C283        C  0.52621467  0.58008990  0.44572942    -0.20600
C284        C  0.50394606  0.55802918  0.48902392    -0.19100
C285        C  0.48152634  0.51863442  0.48324667     0.20100
C286        C  0.48017970  0.50082258  0.43222481     0.02200
C287        C  0.45774653  0.46081056  0.42907471    -0.13800
C288        C  0.43804896  0.43947160  0.47484950    -0.11500
C289        C  0.43974083  0.45716736  0.52507894     0.01800
C290        C  0.46117800  0.49683467  0.52874481    -0.23700
H291        H  0.52558737  0.51850778  0.25394138     0.09800
H292        H  0.48390961  0.47904031  0.32460959     0.13300
H293        H  0.56917585  0.61615343  0.36017900     0.12100
H294        H  0.54395804  0.61039626  0.45195817     0.13200
H295        H  0.50495308  0.57179161  0.52773950     0.12300
H296        H  0.45552425  0.44502731  0.39224737     0.09400
H297        H  0.42186841  0.40884518  0.47104773     0.12600
H298        H  0.46284776  0.51079110  0.56756061     0.14500
C299        C  0.27718915  0.37445502  0.71540495    -0.01000
C300        C  0.26401759  0.36595032  0.76955454    -0.09000
C301        C  0.23071714  0.36575268  0.78557191    -0.17900
C302        C  0.20934742  0.37419408  0.74769750     0.04500
C303        C  0.22210125  0.38143824  0.69230973     0.18700
C304        C  0.25568521  0.38154993  0.67678631    -0.19300
C305        C  0.20158038  0.38910258  0.65285928    -0.20600
C306        C  0.16880082  0.39014731  0.66728231    -0.19100
C307        C  0.15590250  0.38395810  0.72166003     0.20100
C308        C  0.17602914  0.37600883  0.76276275     0.02200
C309        C  0.16226872  0.37092027  0.81728871    -0.13800
C310        C  0.13001403  0.37363082  0.83034423    -0.11500
C311        C  0.11012144  0.38116451  0.78969953     0.01800
C312        C  0.12318767  0.38614357  0.73530989    -0.23700
H313        H  0.27992589  0.36008953  0.80012562     0.09800
H314        H  0.22263186  0.35911369  0.82798327     0.13300
H315        H  0.26546367  0.38789029  0.63465112     0.12100
H316        H  0.21104840  0.39450166  0.61053213     0.13200
H317        H  0.15365388  0.39627255  0.63574620     0.12300
H318        H  0.17604678  0.36530036  0.85099560     0.09400
H319        H  0.12065335  0.36988145  0.87269121     0.12600
H320        H  0.10822785  0.39237720  0.70357645     0.14500
C321        C  0.39243393  0.12078892  0.53143594    -0.01000
C322        C  0.42676387  0.15513329  0.53246150    -0.09000
C323        C  0.42797825  0.18861640  0.54983480    -0.17900
C324        C  0.39465984  0.18891498  0.56682098     0.04500
C325        C  0.35969015  0.15416466  0.56410954     0.18700
C326        C  0.35893850  0.12059446  0.54691306    -0.19300
C327        C  0.32570785  0.15306950  0.57893400    -0.20600
C328        C  0.32566507  0.18568953  0.59696164    -0.19100
C329        C  0.35967336  0.22010061  0.60148950     0.20100
C330        C  0.39473039  0.22226461  0.58661020     0.02200
C331        C  0.42829913  0.25760561  0.59299091    -0.13800
C332        C  0.42706176  0.28932003  0.61316863    -0.11500
C333        C  0.39242719  0.28706050  0.62740588     0.01800
C334        C  0.35883054  0.25235292  0.62122760    -0.23700
H335        H  0.45302761  0.15607379  0.52050245     0.09800
H336        H  0.45553151  0.21379940  0.54952206     0.13300
H337        H  0.33217665  0.09416428  0.54595557     0.12100
H338        H  0.29893621  0.12674683  0.57663871     0.13200
H339        H  0.29885060  0.18387961  0.60811994     0.12300
H340        H  0.45608385  0.26168475  0.58316337     0.09400
H341        H  0.45340232  0.31588248  0.61718773     0.12600
H342        H  0.33184735  0.25036206  0.63192688     0.14500
loop_ 
_geom_bond_atom_site_label_1 
_geom_bond_atom_site_label_2 
_geom_bond_distance 
_geom_bond_site_symmetry_2 
_ccdc_geom_bond_type 
O1            C4   1.264       .  A
O1           Cd6   2.463       .  S
C2           O11   1.265       .  A
C2            O7   1.265       .  A
C2          C299   1.482       .  S
O3            C9   1.266       .  A
O3           Cd6   2.459       .  S
C4           O12   1.265       .  A
C4          C289   1.479       .  S
C5           O10   1.268       .  A
C5            O8   1.263       .  A
C5          C267   1.479       .  S
Cd6          O13   2.463       .  S
Cd6          O12   2.472       .  S
Cd6          O11   2.475       .  S
Cd6           O7   2.477       .  S
Cd6          O10   2.504       .  S
Cd6           O8   2.424       .  S
C9           O13   1.266       .  A
C9          C333   1.479       .  S
O14          C17   1.264   1_554  A
O14         Cd19   2.484   1_554  S
C15          O24   1.264       .  A
C15          O20   1.266       .  A
C15         C189   1.479       .  S
O16          C22   1.267   1_565  A
O16         Cd19   2.498   1_565  S
C17          O25   1.265       .  A
C17         C233   1.484       .  S
C18          O23   1.264       .  A
C18          O21   1.267       .  A
C18         C211   1.483       .  S
Cd19         O26   2.447       .  S
Cd19         O25   2.489       .  S
Cd19         O24   2.448   1_556  S
Cd19         O20   2.477   1_556  S
Cd19         O23   2.461   1_546  S
Cd19         O21   2.498   1_546  S
C22          O26   1.263       .  A
C22         C167   1.482   1_545  S
O27          C30   1.265       .  A
O27         Cd32   2.476       .  S
C28          O37   1.263       .  A
C28          O33   1.265       .  A
C28         C311   1.482       .  S
O29          C35   1.263       .  A
O29         Cd32   2.484   1_655  S
C30          O38   1.265       .  A
C30         C157   1.480       .  S
C31          O36   1.268   1_455  A
C31          O34   1.265       .  A
C31         C123   1.481       .  S
Cd32         O39   2.488   1_455  S
Cd32         O38   2.470       .  S
Cd32         O37   2.481       .  S
Cd32         O33   2.484       .  S
Cd32         O36   2.502   1_455  S
Cd32         O34   2.422       .  S
C35          O39   1.265       .  A
C35         C245   1.484       .  S
O40          C43   1.265       .  A
O40         Cd45   2.473   1_565  S
C41          O50   1.266       .  A
C41          O46   1.264   1_565  A
C41         C179   1.481       .  S
O42          C48   1.266       .  A
O42         Cd45   2.477       .  S
C43          O51   1.264       .  A
C43         C113   1.482       .  S
C44          O49   1.266       .  A
C44          O47   1.265       .  A
C44         C321   1.479       .  S
Cd45         O52   2.459       .  S
Cd45         O51   2.482   1_545  S
Cd45         O50   2.485   1_545  S
Cd45         O46   2.458       .  S
Cd45         O49   2.475       .  S
Cd45         O47   2.456       .  S
C48          O52   1.265       .  A
C48         C201   1.480       .  S
O53          C56   1.263       .  A
O53         Cd58   2.469       .  S
C54          O63   1.266       .  A
C54          O59   1.265       .  A
C54         C255   1.477       .  S
O55          C61   1.266       .  A
O55         Cd58   2.497       .  S
C56          O64   1.266       .  A
C56          C79   1.482       .  S
C57          O62   1.265       .  A
C57          O60   1.266       .  A
C57         C223   1.483       .  S
Cd58         O65   2.455       .  S
Cd58         O64   2.489       .  S
Cd58         O63   2.451       .  S
Cd58         O59   2.464       .  S
Cd58         O62   2.467       .  S
Cd58         O60   2.482       .  S
C61          O65   1.262       .  A
C61         C277   1.480       .  S
O66          C69   1.267   1_655  A
O66         Cd71   2.503   1_655  S
C67          O76   1.263       .  A
C67          O72   1.267       .  A
C67          C91   1.482       .  S
O68          C74   1.264       .  A
O68         Cd71   2.488       .  S
C69          O77   1.265       .  A
C69         C135   1.481       .  S
C70          O75   1.265       .  A
C70          O73   1.265       .  A
C70         C145   1.477       .  S
Cd71         O78   2.473       .  S
Cd71         O77   2.435       .  S
Cd71         O76   2.472   1_455  S
Cd71         O72   2.479   1_455  S
Cd71         O75   2.446       .  S
Cd71         O73   2.478       .  S
C74          O78   1.264       .  A
C74         C101   1.482       .  S
C79          C80   1.402       .  A
C79          C84   1.401       .  A
C80          C81   1.398       .  A
C80          H93   1.083       .  S
C81          C82   1.415       .  A
C81          H94   1.077       .  S
C82          C88   1.432       .  A
C82          C83   1.423       .  A
C83          C85   1.399       .  A
C83          C84   1.405       .  A
C84          H95   1.084       .  S
C85          C86   1.389       .  A
C85          H96   1.084       .  S
C86          C87   1.399       .  A
C86          H97   1.084       .  S
C87          C88   1.422       .  A
C87          C92   1.404       .  A
C88          C89   1.416       .  A
C89          C90   1.399       .  A
C89          H98   1.077       .  S
C90          C91   1.402       .  A
C90          H99   1.083       .  S
C91          C92   1.400       .  A
C92         H100   1.084       .  S
C101        C102   1.401       .  A
C101        C106   1.401       .  A
C102        C103   1.400       .  A
C102        H115   1.083       .  S
C103        C104   1.416       .  A
C103        H116   1.077       .  S
C104        C110   1.433       .  A
C104        C105   1.423       .  A
C105        C107   1.399       .  A
C105        C106   1.404       .  A
C106        H117   1.084       .  S
C107        C108   1.388       .  A
C107        H118   1.084       .  S
C108        C109   1.399       .  A
C108        H119   1.084       .  S
C109        C110   1.423       .  A
C109        C114   1.404       .  A
C110        C111   1.416       .  A
C111        C112   1.400       .  A
C111        H120   1.077       .  S
C112        C113   1.402       .  A
C112        H121   1.083       .  S
C113        C114   1.400       .  A
C114        H122   1.084       .  S
C123        C124   1.402   1_455  A
C123        C128   1.399       .  A
C124        C125   1.404       .  A
C124        H137   1.083       .  S
C125        C126   1.418       .  A
C125        H138   1.078       .  S
C126        C132   1.433   1_655  A
C126        C127   1.422   1_655  A
C127        C129   1.397       .  A
C127        C128   1.399       .  A
C128        H139   1.085       .  S
C129        C130   1.384       .  A
C129        H140   1.084       .  S
C130        C131   1.397       .  A
C130        H141   1.084       .  S
C131        C132   1.423       .  A
C131        C136   1.399       .  A
C132        C133   1.417   1_455  A
C133        C134   1.403       .  A
C133        H142   1.078       .  S
C134        C135   1.402   1_655  A
C134        H143   1.083       .  S
C135        C136   1.399       .  A
C136        H144   1.085       .  S
C145        C146   1.400       .  A
C145        C150   1.400       .  A
C146        C147   1.399       .  A
C146        H159   1.083       .  S
C147        C148   1.416       .  A
C147        H160   1.077       .  S
C148        C154   1.431       .  A
C148        C149   1.422       .  A
C149        C151   1.398       .  A
C149        C150   1.401       .  A
C150        H161   1.084       .  S
C151        C152   1.388   1_554  A
C151        H162   1.084       .  S
C152        C153   1.399   1_556  A
C152        H163   1.084       .  S
C153        C154   1.423       .  A
C153        C158   1.404   1_554  A
C154        C155   1.415       .  A
C155        C156   1.398       .  A
C155        H164   1.077       .  S
C156        C157   1.401   1_554  A
C156        H165   1.083       .  S
C157        C158   1.400       .  A
C158        H166   1.084       .  S
C167        C168   1.400       .  A
C167        C172   1.402   1_565  A
C168        C169   1.400       .  A
C168        H181   1.083       .  S
C169        C170   1.417       .  A
C169        H182   1.077       .  S
C170        C176   1.432       .  A
C170        C171   1.422   1_565  A
C171        C173   1.399       .  A
C171        C172   1.403       .  A
C172        H183   1.084       .  S
C173        C174   1.388       .  A
C173        H184   1.084       .  S
C174        C175   1.399       .  A
C174        H185   1.084       .  S
C175        C176   1.423   1_545  A
C175        C180   1.404       .  A
C176        C177   1.416       .  A
C177        C178   1.399       .  A
C177        H186   1.077       .  S
C178        C179   1.401       .  A
C178        H187   1.083       .  S
C179        C180   1.401   1_565  A
C180        H188   1.084       .  S
C189        C190   1.400       .  A
C189        C194   1.401       .  A
C190        C191   1.398       .  A
C190        H203   1.083       .  S
C191        C192   1.416       .  A
C191        H204   1.077       .  S
C192        C198   1.430       .  A
C192        C193   1.422       .  A
C193        C195   1.399       .  A
C193        C194   1.403       .  A
C194        H205   1.084       .  S
C195        C196   1.389       .  A
C195        H206   1.084       .  S
C196        C197   1.399       .  A
C196        H207   1.084       .  S
C197        C198   1.423       .  A
C197        C202   1.405       .  A
C198        C199   1.414       .  A
C199        C200   1.396       .  A
C199        H208   1.077       .  S
C200        C201   1.401       .  A
C200        H209   1.083       .  S
C201        C202   1.401       .  A
C202        H210   1.084       .  S
C211        C212   1.401       .  A
C211        C216   1.402       .  A
C212        C213   1.397       .  A
C212        H225   1.083       .  S
C213        C214   1.414       .  A
C213        H226   1.077       .  S
C214        C220   1.432       .  A
C214        C215   1.423       .  A
C215        C217   1.400       .  A
C215        C216   1.408       .  A
C216        H227   1.084       .  S
C217        C218   1.391       .  A
C217        H228   1.084       .  S
C218        C219   1.400       .  A
C218        H229   1.084       .  S
C219        C220   1.422       .  A
C219        C224   1.407       .  A
C220        C221   1.415       .  A
C221        C222   1.397       .  A
C221        H230   1.077       .  S
C222        C223   1.401       .  A
C222        H231   1.083       .  S
C223        C224   1.402       .  A
C224        H232   1.084       .  S
C233        C234   1.401       .  A
C233        C238   1.403       .  A
C234        C235   1.399       .  A
C234        H247   1.083       .  S
C235        C236   1.416       .  A
C235        H248   1.077       .  S
C236        C242   1.433       .  A
C236        C237   1.422       .  A
C237        C239   1.400   1_556  A
C237        C238   1.407       .  A
C238        H249   1.084   1_556  S
C239        C240   1.391   1_554  A
C239        H250   1.084       .  S
C240        C241   1.400       .  A
C240        H251   1.084   1_556  S
C241        C242   1.423       .  A
C241        C246   1.407       .  A
C242        C243   1.415       .  A
C243        C244   1.398       .  A
C243        H252   1.077       .  S
C244        C245   1.400       .  A
C244        H253   1.083       .  S
C245        C246   1.403       .  A
C246        H254   1.084       .  S
C255        C256   1.399   1_554  A
C255        C260   1.403       .  A
C256        C257   1.393       .  A
C256        H269   1.083       .  S
C257        C258   1.415       .  A
C257        H270   1.076       .  S
C258        C264   1.428       .  A
C258        C259   1.422       .  A
C259        C261   1.400       .  A
C259        C260   1.406   1_556  A
C260        H271   1.084       .  S
C261        C262   1.392       .  A
C261        H272   1.084   1_556  S
C262        C263   1.400       .  A
C262        H273   1.084       .  S
C263        C264   1.423       .  A
C263        C268   1.408       .  A
C264        C265   1.412       .  A
C265        C266   1.391       .  A
C265        H274   1.076       .  S
C266        C267   1.400       .  A
C266        H275   1.083       .  S
C267        C268   1.402       .  A
C268        H276   1.084       .  S
C277        C278   1.401       .  A
C277        C282   1.401       .  A
C278        C279   1.395       .  A
C278        H291   1.083       .  S
C279        C280   1.414       .  A
C279        H292   1.077       .  S
C280        C286   1.430       .  A
C280        C281   1.423       .  A
C281        C283   1.399       .  A
C281        C282   1.407       .  A
C282        H293   1.084       .  S
C283        C284   1.390       .  A
C283        H294   1.084       .  S
C284        C285   1.400       .  A
C284        H295   1.084       .  S
C285        C286   1.422       .  A
C285        C290   1.405       .  A
C286        C287   1.416       .  A
C287        C288   1.396       .  A
C287        H296   1.077       .  S
C288        C289   1.400       .  A
C288        H297   1.083       .  S
C289        C290   1.402       .  A
C290        H298   1.084       .  S
C299        C300   1.401       .  A
C299        C304   1.402       .  A
C300        C301   1.397       .  A
C300        H313   1.083       .  S
C301        C302   1.415       .  A
C301        H314   1.077       .  S
C302        C308   1.431       .  A
C302        C303   1.422       .  A
C303        C305   1.400       .  A
C303        C304   1.406       .  A
C304        H315   1.084       .  S
C305        C306   1.391       .  A
C305        H316   1.084       .  S
C306        C307   1.400       .  A
C306        H317   1.084       .  S
C307        C308   1.423       .  A
C307        C312   1.407       .  A
C308        C309   1.415       .  A
C309        C310   1.397       .  A
C309        H318   1.077       .  S
C310        C311   1.400       .  A
C310        H319   1.083       .  S
C311        C312   1.403       .  A
C312        H320   1.084       .  S
C321        C322   1.401       .  A
C321        C326   1.401       .  A
C322        C323   1.395       .  A
C322        H335   1.083       .  S
C323        C324   1.414       .  A
C323        H336   1.079       .  S
C324        C330   1.429       .  A
C324        C325   1.423       .  A
C325        C327   1.399       .  A
C325        C326   1.405       .  A
C326        H337   1.085       .  S
C327        C328   1.390       .  A
C327        H338   1.084       .  S
C328        C329   1.399       .  A
C328        H339   1.084       .  S
C329        C330   1.423       .  A
C329        C334   1.404       .  A
C330        C331   1.415       .  A
C331        C332   1.395       .  A
C331        H340   1.079       .  S
C332        C333   1.401       .  A
C332        H341   1.083       .  S
C333        C334   1.401       .  A
C334        H342   1.085       .  S
