geometry optimzed in LAMMPS
_audit_creation_date              2020-12-01 
_audit_creation_method            'lammps2cif' 
_symmetry_space_group_name_H-M    'P1' 
_symmetry_Int_Tables_number       1 
_symmetry_cell_setting            triclinic 
loop_ 
_symmetry_equiv_pos_as_xyz 
  x,y,z 
_cell_length_a                    23.43585287 
_cell_length_b                    23.492272737775146 
_cell_length_c                    23.476761297881925 
_cell_angle_alpha                 89.7577215001222 
_cell_angle_beta                  90.48885975188897 
_cell_angle_gamma                 89.57465803675055 
loop_ 
_atom_site_label 
_atom_site_type_symbol 
_atom_site_fract_x 
_atom_site_fract_y 
_atom_site_fract_z 
_atom_site_charge 
N1          N  0.92872718  0.07094231  0.50165721    -0.35100
N2          N  0.93541622  0.94365060  0.50064235    -0.55600
N3          N  0.06263433  0.94984610  0.49878815    -0.35100
N4          N  0.05599920  0.07711974  0.50110287    -0.55600
C5          C  0.87169654  0.05860327  0.50151097     0.28500
C6          C  0.93525887  0.12883506  0.50029523     0.28500
C7          C  0.05614850  0.89197009  0.50072367     0.28500
C8          C  0.11956252  0.96223247  0.50208590     0.28500
C9          C  0.87735525  0.95011835  0.50064148     0.37100
C10         C  0.94761803  0.88664377  0.49885835     0.37100
C11         C  0.04384838  0.13413645  0.50097216     0.37100
C12         C  0.11401646  0.07066248  0.50181264     0.37100
C13         C  0.84171884  0.10982054  0.50066935    -0.20400
C14         C  0.88122712  0.15346480  0.49980318    -0.20400
C15         C  0.11010715  0.86743161  0.50477239    -0.20400
C16         C  0.14953572  0.91111133  0.50564602    -0.20400
C17         C  0.85282221  0.89656950  0.49908381    -0.21400
C18         C  0.89666291  0.85696775  0.49789420    -0.21400
C19         C  0.09481110  0.16383755  0.50207069    -0.21400
C20         C  0.13862411  0.12419864  0.50266303    -0.21400
C21         C  0.84532128  0.00294188  0.50150275    -0.16800
C22         C  0.98802630  0.16062464  0.49950078    -0.16800
C23         C  0.14589842  0.01783152  0.50192578    -0.16800
C24         C  0.00347588  0.86010457  0.49887703    -0.16800
H25         H  0.79583984  0.11541171  0.50038026     0.16100
H26         H  0.87105755  0.19847390  0.49890234     0.16100
H27         H  0.12026423  0.82246742  0.50716655     0.16100
H28         H  0.19534414  0.90561492  0.50881754     0.16100
H29         H  0.80776721  0.88680374  0.49864508     0.14400
H30         H  0.89139723  0.81126473  0.49660491     0.14400
H31         H  0.10010077  0.20956042  0.50244525     0.14400
H32         H  0.18368747  0.13392633  0.50360392     0.14400
H33         H  0.96143857  0.04139140  0.50301276     0.27700
H34         H  0.03012110  0.97924236  0.49334065     0.27700
Zn35       Zn  0.94462232  0.46110787  0.53535716     1.49700
Zn36       Zn  0.03502775  0.45268007  0.43818246     1.49400
Zn37       Zn  0.96734682  0.56794987  0.43119963     1.49100
Zn38       Zn  0.03778513  0.55818515  0.54508825     1.49500
O39         O  0.99604649  0.51029329  0.48822505    -1.82600
O40         O  0.95724362  0.37176902  0.52604727    -0.73200
O41         O  0.03089299  0.46891638  0.34906727    -0.73000
O42         O  0.88578559  0.55073422  0.43189496    -0.72600
O43         O  0.01492191  0.36627192  0.45235085    -0.73200
O44         O  0.86892047  0.48030563  0.49532761    -0.72800
O45         O  0.98858248  0.55339239  0.34502976    -0.73400
O46         O  0.03293600  0.64836250  0.53071134    -0.72800
O47         O  0.11346017  0.45807421  0.46881661    -0.73600
O48         O  0.97962705  0.65451376  0.45248200    -0.73000
O49         O  0.11578960  0.52573230  0.53659292    -0.73400
O50         O  0.01899569  0.54105784  0.63129615    -0.73300
O51         O  0.95090671  0.47631982  0.62600131    -0.73100
C52         C  0.98530187  0.34144400  0.49052638     0.78700
C53         C  0.01109790  0.51077786  0.31953025     0.79200
C54         C  0.85307634  0.51460435  0.45522192     0.78100
C55         C  0.00701537  0.67901041  0.49290937     0.78500
C56         C  0.13891380  0.48532016  0.50839967     0.79600
C57         C  0.98450051  0.50732291  0.65633119     0.78700
Zn58       Zn  0.43904196  0.97700946  0.44583310     1.52100
Zn59       Zn  0.55064007  0.04957807  0.45121339     1.49400
Zn60       Zn  0.44569029  0.04849773  0.55816517     1.49100
Zn61       Zn  0.54552653  0.95963221  0.55189386     1.49500
O62         O  0.49535618  0.00861460  0.50132317    -1.82600
O63         O  0.45727138  0.98864787  0.35894780    -0.73200
O64         O  0.54860298  0.12641432  0.48770965    -0.73000
O65         O  0.35623172  0.04766949  0.53985714    -0.72600
O66         O  0.53255843  0.04514418  0.36123232    -0.73200
O67         O  0.35269806  0.99552661  0.46152488    -0.72800
O68         O  0.48295061  0.12428994  0.55745255    -0.73400
O69         O  0.53342912  0.96944135  0.64104885    -0.72800
O70         O  0.63709608  0.02759721  0.46345859    -0.73600
O71         O  0.45628091  0.02389985  0.64424970    -0.73000
O72         O  0.63531992  0.96747202  0.53627466    -0.73400
O73         O  0.51408631  0.88262052  0.53148582    -0.73300
O74         O  0.44712910  0.89601827  0.46289616    -0.73100
C75         C  0.49536930  0.01690136  0.33247431     0.78700
C76         C  0.52453257  0.14775293  0.53160956     0.79200
C77         C  0.32690899  0.02278318  0.50088039     0.78100
C78         C  0.49499656  0.99487359  0.67021254     0.78500
C79         C  0.66385914  0.99673752  0.50007871     0.79600
C80         C  0.47566726  0.86441001  0.49702891     0.78700
N81         N  0.49609937  0.93989031  0.06818092    -0.35100
N82         N  0.49790482  0.06717104  0.06153000    -0.55600
N83         N  0.50005171  0.06072071  0.93444907    -0.35100
N84         N  0.49625947  0.93336499  0.94092894    -0.55600
C85         C  0.49436624  0.95261282  0.12501317     0.28500
C86         C  0.49445210  0.88202900  0.06162166     0.28500
C87         C  0.49928199  0.11851231  0.94105054     0.28500
C88         C  0.49756546  0.04843465  0.87764605     0.28500
C89         C  0.49869858  0.06093636  0.11946219     0.37100
C90         C  0.50087684  0.12403540  0.04933681     0.37100
C91         C  0.49613090  0.87629683  0.95311748     0.37100
C92         C  0.49645246  0.93994245  0.88294326     0.37100
C93         C  0.49124761  0.90163224  0.15491099    -0.20400
C94         C  0.49138970  0.85778645  0.11554451    -0.20400
C95         C  0.49685417  0.14320637  0.88725500    -0.20400
C96         C  0.49577577  0.09962496  0.84780168    -0.20400
C97         C  0.50196316  0.11449776  0.14392945    -0.21400
C98         C  0.50334408  0.15389314  0.10013960    -0.21400
C99         C  0.49583771  0.84665766  0.90209782    -0.21400
C100        C  0.49595604  0.88635653  0.85833867    -0.21400
C101        C  0.49643368  0.00830624  0.15140498    -0.16800
C102        C  0.49595629  0.84981444  0.00904446    -0.16800
C103        C  0.49686719  0.99295966  0.85118291    -0.16800
C104        C  0.50081101  0.15028279  0.99360652    -0.16800
H105        H  0.48934200  0.89632169  0.20066009     0.16100
H106        H  0.48947562  0.81288538  0.12575389     0.16100
H107        H  0.49576407  0.18820267  0.87720355     0.16100
H108        H  0.49369095  0.10527941  0.80206000     0.16100
H109        H  0.50332389  0.12440489  0.18889307     0.14400
H110        H  0.50591514  0.19955877  0.10532325     0.14400
H111        H  0.49541589  0.80093014  0.89675099     0.14400
H112        H  0.49574494  0.87666347  0.81331073     0.14400
H113        H  0.49957807  0.96919281  0.03557950     0.27700
H114        H  0.50358473  0.03118539  0.96695606     0.27700
N115        N  0.94019752  0.50258092  0.05478572    -0.35100
N116        N  0.93320783  0.49789123  0.92755751    -0.55600
N117        N  0.06014694  0.50053749  0.92219699    -0.35100
N118        N  0.06689811  0.50027592  0.04976153    -0.55600
C119        C  0.88245052  0.49767454  0.04777952     0.28500
C120        C  0.95283984  0.50002319  0.11177575     0.28500
C121        C  0.04736741  0.49364677  0.86555995     0.28500
C122        C  0.11772742  0.49330524  0.93014376     0.28500
C123        C  0.87617103  0.50114865  0.93949432     0.37100
C124        C  0.93925412  0.50130837  0.86967729     0.37100
C125        C  0.06074595  0.50638387  0.10730217     0.37100
C126        C  0.12372319  0.50393846  0.03787189     0.37100
C127        C  0.85833853  0.49213237  0.10132170    -0.20400
C128        C  0.90213766  0.49364195  0.14113777    -0.20400
C129        C  0.09793459  0.48204925  0.83732282    -0.20400
C130        C  0.14169113  0.48171719  0.87752220    -0.20400
C131        C  0.84606986  0.50573992  0.88852913    -0.21400
C132        C  0.88543790  0.50596989  0.84496735    -0.21400
C133        C  0.11422532  0.51339232  0.13188508    -0.21400
C134        C  0.15361115  0.51184315  0.08850343    -0.21400
C135        C  0.85007248  0.49957804  0.99515989    -0.16800
C136        C  0.00820981  0.50463014  0.13876082    -0.16800
C137        C  0.14994563  0.49875071  0.98274583    -0.16800
C138        C  0.99190760  0.49872087  0.83805109    -0.16800
H139        H  0.81352603  0.48769686  0.11100789     0.16100
H140        H  0.89697570  0.49055146  0.18680670     0.16100
H141        H  0.10295447  0.47445125  0.79220092     0.16100
H142        H  0.18634336  0.47398415  0.86876279     0.16100
H143        H  0.80024791  0.50882370  0.88312310     0.14400
H144        H  0.87534858  0.50901870  0.79998304     0.14400
H145        H  0.12403684  0.51904671  0.17662604     0.14400
H146        H  0.19929685  0.51603755  0.09385609     0.14400
H147        H  0.96896151  0.51044097  0.02264812     0.27700
H148        H  0.03182648  0.51393478  0.95302959     0.27700
Zn149      Zn  0.55089579  0.54769586  0.05080529     1.49700
Zn150      Zn  0.44922899  0.55648741  0.96051785     1.49400
Zn151      Zn  0.55490387  0.44861253  0.96038575     1.49100
Zn152      Zn  0.44373134  0.44346448  0.03033495     1.49500
O153        O  0.49978105  0.49969405  0.00094034    -1.82600
O154        O  0.53417204  0.63837331  0.04355836    -0.73200
O155        O  0.48243163  0.55201772  0.88338717    -0.73000
O156        O  0.64180258  0.46159509  0.97730150    -0.72600
O157        O  0.46160904  0.64243968  0.98257195    -0.73200
O158        O  0.64077535  0.53464775  0.03642077    -0.72800
O159        O  0.54723919  0.48064775  0.88347783    -0.73400
O160        O  0.46069069  0.35693185  0.01495400    -0.72800
O161        O  0.36003021  0.53889935  0.96136421    -0.73600
O162        O  0.53953465  0.35955376  0.96409425    -0.73000
O163        O  0.35696820  0.46009850  0.01321025    -0.73400
O164        O  0.45731313  0.45324854  0.11136393    -0.73300
O165        O  0.52872535  0.51518023  0.12870979    -0.73100
C166        C  0.49786233  0.66808000  0.01426008     0.78700
C167        C  0.52193075  0.52292636  0.85980682     0.79200
C168        C  0.66894487  0.49867151  0.00630442     0.78100
C169        C  0.50052477  0.33072082  0.98873175     0.78500
C170        C  0.33095988  0.49943875  0.98522026     0.79600
C171        C  0.49096646  0.47926557  0.14498698     0.78700
Zn172      Zn  0.58048546  0.48012481  0.54356215     1.49700
Zn173      Zn  0.50407797  0.52521367  0.44286218     1.49400
Zn174      Zn  0.47849596  0.41403394  0.49564819     1.49100
Zn175      Zn  0.46038431  0.52250826  0.56527221     1.49500
O176        O  0.50653292  0.48632108  0.51304066    -1.82600
O177        O  0.63129398  0.48799228  0.48038331    -0.73200
O178        O  0.44813873  0.48492713  0.39558404    -0.73000
O179        O  0.52111277  0.35871638  0.54092336    -0.72600
O180        O  0.58171055  0.52178846  0.40586815    -0.73200
O181        O  0.59521754  0.40409526  0.57909170    -0.72800
O182        O  0.48823470  0.40109411  0.41228731    -0.73400
O183        O  0.39206590  0.47849276  0.58166542    -0.72800
O184        O  0.47921572  0.60455232  0.45381275    -0.73600
O185        O  0.39690384  0.41145879  0.51523128    -0.73000
O186        O  0.43770291  0.59850974  0.53837559    -0.73400
O187        O  0.50509057  0.53822397  0.63247674    -0.73300
O188        O  0.59468508  0.53882916  0.60162303    -0.73100
C189        C  0.62798475  0.50405264  0.42882427     0.78700
C190        C  0.46663591  0.43745111  0.37806203     0.79200
C191        C  0.56588202  0.35955142  0.57179196     0.78100
C192        C  0.36912448  0.43967817  0.55201046     0.78500
C193        C  0.45224233  0.62684757  0.49487903     0.79600
C194        C  0.55754590  0.54995209  0.63898529     0.78700
C195        C  0.51941731  0.58979149  0.77783735    -0.11800
C196        C  0.54284604  0.54146093  0.80468556     0.10300
C197        C  0.58924268  0.51289679  0.77991956    -0.11800
C198        C  0.60620436  0.52726298  0.72542334    -0.11800
C199        C  0.57471531  0.56796472  0.69488878     0.10300
C200        C  0.53639893  0.60383245  0.72317575    -0.11800
H201        H  0.48557858  0.61437815  0.79731036     0.14300
H202        H  0.61010190  0.47719010  0.80097013     0.14300
H203        H  0.63645942  0.49969080  0.70406868     0.14300
H204        H  0.51245784  0.63607629  0.69977841     0.14300
C205        C  0.43041510  0.45718288  0.22685273    -0.11800
C206        C  0.48527320  0.46485285  0.20473225     0.10300
C207        C  0.53351010  0.45259682  0.23814976    -0.11800
C208        C  0.52679644  0.43511137  0.29437391    -0.11800
C209        C  0.47195054  0.43125916  0.31738144     0.10300
C210        C  0.42378666  0.44122100  0.28328606    -0.11800
H211        H  0.39275975  0.46557316  0.20095474     0.14300
H212        H  0.57599941  0.45683806  0.22089864     0.14300
H213        H  0.56430436  0.42924672  0.32115037     0.14300
H214        H  0.38138903  0.44008045  0.30131858     0.14300
C215        C  0.78572527  0.49994057  0.99912279    -0.11700
C216        C  0.73284767  0.50002511  0.00352045    -0.13300
C217        C  0.21423042  0.49875671  0.98053544    -0.11700
C218        C  0.26721758  0.49933776  0.98138322    -0.13300
C219        C  0.49805436  0.73220342  0.01520384    -0.11700
C220        C  0.49709510  0.78529836  0.01283826    -0.13300
C221        C  0.50165534  0.26712299  0.98822316    -0.11700
C222        C  0.50160365  0.21432419  0.99011934    -0.13300
C223        C  0.45221429  0.77702719  0.44483247    -0.11800
C224        C  0.46231929  0.80449548  0.49674804     0.10300
C225        C  0.45828901  0.77478239  0.54819459    -0.11800
C226        C  0.44826220  0.71670903  0.54754810    -0.11800
C227        C  0.44393272  0.68807361  0.49533792     0.10300
C228        C  0.44378342  0.71866536  0.44405536    -0.11800
H229        H  0.45401804  0.80016870  0.40487214     0.14300
H230        H  0.46425304  0.79622004  0.58856899     0.14300
H231        H  0.44864508  0.69363843  0.58761772     0.14300
H232        H  0.44031506  0.69705434  0.40351264     0.14300
C233        C  0.52438677  0.22362041  0.60537670    -0.11800
C234        C  0.54886517  0.19929562  0.55665800     0.10300
C235        C  0.59909563  0.22278454  0.53466359    -0.11800
C236        C  0.61830933  0.27491980  0.55481115    -0.11800
C237        C  0.58483371  0.30506048  0.59363066     0.10300
C238        C  0.54366901  0.27589714  0.62495206    -0.11800
H239        H  0.48786160  0.20458410  0.62576841     0.14300
H240        H  0.62129884  0.20300135  0.49956042     0.14300
H241        H  0.65179595  0.29632773  0.53164962     0.14300
H242        H  0.51871919  0.29814231  0.65664020     0.14300
C243        C  0.49564556  0.99162191  0.73395143    -0.11700
C244        C  0.49614646  0.99089150  0.78690597    -0.13300
C245        C  0.49656189  0.01542635  0.26859498    -0.11700
C246        C  0.49655115  0.01195002  0.21570302    -0.13300
C247        C  0.77077596  0.45760888  0.42324023    -0.11800
C248        C  0.79558382  0.51089983  0.43170087     0.10300
C249        C  0.76626990  0.56039758  0.41431040    -0.11800
C250        C  0.70922945  0.55713152  0.39760961    -0.11800
C251        C  0.68174052  0.50450507  0.39910748     0.10300
C252        C  0.71433201  0.45439995  0.40495082    -0.11800
H253        H  0.79403918  0.41880724  0.43344907     0.14300
H254        H  0.78590939  0.60181228  0.41825013     0.14300
H255        H  0.68471059  0.59619381  0.39296779     0.14300
H256        H  0.69359106  0.41331194  0.40562857     0.14300
C257        C  0.22161607  0.48816447  0.57446346    -0.11800
C258        C  0.19600033  0.46634884  0.52509345     0.10300
C259        C  0.22377460  0.42342312  0.49423807    -0.11800
C260        C  0.27912738  0.40744881  0.50871839    -0.11800
C261        C  0.30725654  0.43483597  0.55371819     0.10300
C262        C  0.27673340  0.47192840  0.58913209    -0.11800
H263        H  0.20001666  0.51934367  0.60061563     0.14300
H264        H  0.20389531  0.40410162  0.45734007     0.14300
H265        H  0.30153751  0.37806070  0.48121830     0.14300
H266        H  0.29718531  0.49279116  0.62486756     0.14300
C267        C  0.98850334  0.50067380  0.77347236    -0.11700
C268        C  0.98526729  0.50339896  0.72042003    -0.13300
C269        C  0.01240459  0.50917630  0.25581183    -0.11700
C270        C  0.01113652  0.50723600  0.20293219    -0.13300
C271        C  0.21016335  0.02100782  0.50228593    -0.11700
C272        C  0.26308888  0.02340780  0.50196402    -0.13300
C273        C  0.72788305  0.99681108  0.50116513    -0.11700
C274        C  0.78089905  0.99962299  0.50147677    -0.13300
C275        C  0.00788155  0.74282275  0.49596469    -0.11700
C276        C  0.00674377  0.79578396  0.49760370    -0.13300
C277        C  0.98426619  0.27773042  0.49394611    -0.11700
C278        C  0.98499071  0.22484615  0.49669701    -0.13300
loop_ 
_geom_bond_atom_site_label_1 
_geom_bond_atom_site_label_2 
_geom_bond_distance 
_geom_bond_site_symmetry_2 
_ccdc_geom_bond_type 
N1            C6   1.370       .  A
N1            C5   1.370       .  A
N1           H33   1.031       .  S
N2            C9   1.368       .  A
N2           C10   1.368       .  A
N3            C8   1.369       .  A
N3            C7   1.370       .  A
N3           H34   1.031       .  S
N4           C11   1.367       .  A
N4           C12   1.367       .  A
C5           C13   1.389       .  A
C5           C21   1.450       .  A
C6           C22   1.450       .  A
C6           C14   1.388       .  A
C7           C15   1.388       .  A
C7           C24   1.449       .  A
C8           C23   1.449   1_565  A
C8           C16   1.389       .  A
C9           C21   1.446   1_565  A
C9           C17   1.388       .  A
C10          C24   1.446   1_655  A
C10          C18   1.387       .  A
C11          C19   1.388       .  A
C11          C22   1.445   1_455  A
C12          C20   1.388       .  A
C12          C23   1.444       .  A
C13          C14   1.387       .  A
C13          H25   1.082       .  S
C14          H26   1.082       .  S
C15          C16   1.386       .  A
C15          H27   1.082       .  S
C16          H28   1.082       .  S
C17          C18   1.381       .  A
C17          H29   1.082       .  S
C18          H30   1.082       .  S
C19          C20   1.381       .  A
C19          H31   1.082       .  S
C20          H32   1.082       .  S
C21         C274   1.512   1_545  S
C22         C278   1.511       .  S
C23         C271   1.508       .  S
C24         C276   1.513       .  S
Zn35         O39   2.011       .  S
Zn35         O40   2.130       .  S
Zn35         O44   2.047       .  S
Zn35         O51   2.163       .  S
Zn36         O39   2.015   1_455  S
Zn36         O41   2.126       .  S
Zn36         O43   2.113       .  S
Zn36         O47   1.973       .  S
Zn37         O39   2.009       .  S
Zn37         O42   1.957       .  S
Zn37         O45   2.116       .  S
Zn37         O48   2.117       .  S
Zn38         O39   2.003   1_455  S
Zn38         O46   2.146       .  S
Zn38         O49   1.987       .  S
Zn38         O50   2.113       .  S
O40          C52   1.282       .  A
O41          C53   1.283       .  A
O42          C54   1.273       .  A
O43          C52   1.280   1_455  A
O44          C54   1.287       .  A
O45          C53   1.281   1_655  A
O46          C55   1.286       .  A
O47          C56   1.277       .  A
O48          C55   1.282   1_655  A
O49          C56   1.279       .  A
O50          C57   1.281   1_455  A
O51          C57   1.289       .  A
C52         C277   1.499       .  S
C53         C269   1.497       .  S
C54         C248   1.455       .  S
C55         C275   1.501       .  S
C56         C258   1.457       .  S
C57         C268   1.507       .  S
Zn58         O62   1.996   1_565  S
Zn58         O63   2.105       .  S
Zn58         O67   2.103       .  S
Zn58         O74   1.950       .  S
Zn59         O62   2.006       .  S
Zn59         O64   2.002       .  S
Zn59         O66   2.154       .  S
Zn59         O70   2.104       .  S
Zn60         O62   2.009       .  S
Zn60         O65   2.137       .  S
Zn60         O68   1.989       .  S
Zn60         O71   2.112       .  S
Zn61         O62   2.015   1_565  S
Zn61         O69   2.128       .  S
Zn61         O72   2.148       .  S
Zn61         O73   2.017       .  S
O63          C75   1.280   1_565  A
O64          C76   1.281       .  A
O65          C77   1.285       .  A
O66          C75   1.288       .  A
O67          C77   1.280   1_565  A
O68          C76   1.279       .  A
O69          C78   1.282       .  A
O70          C79   1.279   1_545  A
O71          C78   1.280   1_545  A
O72          C79   1.286       .  A
O73          C80   1.282       .  A
O74          C80   1.273       .  A
C75         C245   1.501       .  S
C76         C234   1.466       .  S
C77         C272   1.496       .  S
C78         C243   1.498       .  S
C79         C273   1.500       .  S
C80         C224   1.444       .  S
N81          C86   1.369       .  A
N81          C85   1.369       .  A
N81         H113   1.031       .  S
N82          C89   1.367       .  A
N82          C90   1.367       .  A
N83          C88   1.366       .  A
N83          C87   1.367       .  A
N83         H114   1.032       .  S
N84          C91   1.370       .  A
N84          C92   1.369       .  A
C85          C93   1.388       .  A
C85         C101   1.451   1_565  A
C86         C102   1.451       .  A
C86          C94   1.389       .  A
C87          C95   1.388       .  A
C87         C104   1.445       .  A
C88         C103   1.446   1_545  A
C88          C96   1.389       .  A
C89         C101   1.445       .  A
C89          C97   1.388       .  A
C90         C104   1.444   1_554  A
C90          C98   1.387       .  A
C91          C99   1.388       .  A
C91         C102   1.451   1_556  A
C92         C100   1.387       .  A
C92         C103   1.449       .  A
C93          C94   1.387       .  A
C93         H105   1.082       .  S
C94         H106   1.082       .  S
C95          C96   1.384       .  A
C95         H107   1.082       .  S
C96         H108   1.082       .  S
C97          C98   1.381       .  A
C97         H109   1.082       .  S
C98         H110   1.082       .  S
C99         C100   1.385       .  A
C99         H111   1.082       .  S
C100        H112   1.082       .  S
C101        C246   1.512       .  S
C102        C220   1.518       .  S
C103        C244   1.510       .  S
C104        C222   1.507       .  S
N115        C120   1.369       .  A
N115        C119   1.368       .  A
N115        H147   1.033       .  S
N116        C123   1.370       .  A
N116        C124   1.369       .  A
N117        C122   1.370       .  A
N117        C121   1.371       .  A
N117        H148   1.035       .  S
N118        C125   1.368       .  A
N118        C126   1.366       .  A
C119        C127   1.389       .  A
C119        C135   1.445   1_554  A
C120        C136   1.444   1_655  A
C120        C128   1.388       .  A
C121        C129   1.389       .  A
C121        C138   1.450   1_455  A
C122        C137   1.449       .  A
C122        C130   1.389       .  A
C123        C135   1.448       .  A
C123        C131   1.387       .  A
C124        C138   1.447       .  A
C124        C132   1.387       .  A
C125        C133   1.387       .  A
C125        C136   1.442       .  A
C126        C134   1.388       .  A
C126        C137   1.443   1_554  A
C127        C128   1.383       .  A
C127        H139   1.082       .  S
C128        H140   1.082       .  S
C129        C130   1.388       .  A
C129        H141   1.082       .  S
C130        H142   1.082       .  S
C131        C132   1.383       .  A
C131        H143   1.082       .  S
C132        H144   1.082       .  S
C133        C134   1.381       .  A
C133        H145   1.082       .  S
C134        H146   1.082       .  S
C135        C215   1.512       .  S
C136        C270   1.509       .  S
C137        C217   1.508       .  S
C138        C267   1.518       .  S
Zn149       O153   2.021       .  S
Zn149       O154   2.169       .  S
Zn149       O158   2.156       .  S
Zn149       O165   2.052       .  S
Zn150       O153   2.008   1_556  S
Zn150       O155   1.980       .  S
Zn150       O157   2.108       .  S
Zn150       O161   2.134       .  S
Zn151       O153   2.006   1_556  S
Zn151       O156   2.096       .  S
Zn151       O159   1.959       .  S
Zn151       O162   2.127       .  S
Zn152       O153   1.995       .  S
Zn152       O160   2.102       .  S
Zn152       O163   2.103       .  S
Zn152       O164   1.941       .  S
O154        C166   1.289       .  A
O155        C167   1.278       .  A
O156        C168   1.278   1_556  A
O157        C166   1.280   1_556  A
O158        C168   1.286       .  A
O159        C167   1.276       .  A
O160        C169   1.278   1_554  A
O161        C170   1.284       .  A
O162        C169   1.282       .  A
O163        C170   1.279   1_554  A
O164        C171   1.273       .  A
O165        C171   1.287       .  A
C166        C219   1.507       .  S
C167        C196   1.454       .  S
C168        C216   1.500       .  S
C169        C221   1.494       .  S
C170        C218   1.496       .  S
C171        C206   1.449       .  S
Zn172       O176   1.874       .  S
Zn172       O177   1.919       .  S
Zn172       O181   1.995       .  S
Zn172       O188   1.971       .  S
Zn173       O176   1.881       .  S
Zn173       O178   1.962       .  S
Zn173       O180   2.024       .  S
Zn173       O184   1.967       .  S
Zn174       O176   1.871       .  S
Zn174       O179   1.941       .  S
Zn174       O182   1.997       .  S
Zn174       O185   1.972       .  S
Zn175       O176   1.848       .  S
Zn175       O183   1.953       .  S
Zn175       O186   1.960       .  S
Zn175       O187   1.925       .  S
O177        C189   1.268       .  A
O178        C190   1.265       .  A
O179        C191   1.270       .  A
O180        C189   1.273       .  A
O181        C191   1.268       .  A
O182        C190   1.270       .  A
O183        C192   1.269       .  A
O184        C193   1.270       .  A
O185        C192   1.272       .  A
O186        C193   1.267       .  A
O187        C194   1.270       .  A
O188        C194   1.268       .  A
C189        C251   1.445       .  S
C190        C209   1.439       .  S
C191        C237   1.443       .  S
C192        C261   1.456       .  S
C193        C227   1.450       .  S
C194        C199   1.436       .  S
C195        C196   1.402       .  A
C195        C200   1.386       .  A
C195        H201   1.083       .  S
C196        C197   1.405       .  A
C197        C198   1.384       .  A
C197        H202   1.083       .  S
C198        C199   1.396       .  A
C198        H203   1.084       .  S
C199        C200   1.400       .  A
C200        H204   1.084       .  S
C205        C206   1.403       .  A
C205        C210   1.386       .  A
C205        H211   1.084       .  S
C206        C207   1.398       .  A
C207        C208   1.391       .  A
C207        H212   1.083       .  S
C208        C209   1.402       .  A
C208        H213   1.084       .  S
C209        C210   1.396       .  A
C210        H214   1.084       .  S
C215        C216   1.244   1_556  T
C217        C218   1.242       .  T
C219        C220   1.248       .  T
C221        C222   1.241       .  T
C223        C224   1.401       .  A
C223        C228   1.387       .  A
C223        H229   1.084       .  S
C224        C225   1.397       .  A
C225        C226   1.386       .  A
C225        H230   1.084       .  S
C226        C227   1.404       .  A
C226        H231   1.084       .  S
C227        C228   1.399       .  A
C228        H232   1.083       .  S
C233        C234   1.406       .  A
C233        C238   1.390       .  A
C233        H239   1.083       .  S
C234        C235   1.405       .  A
C235        C236   1.391       .  A
C235        H240   1.083       .  S
C236        C237   1.399       .  A
C236        H241   1.084       .  S
C237        C238   1.399       .  A
C238        H242   1.084       .  S
C243        C244   1.243       .  T
C245        C246   1.245       .  T
C247        C248   1.398       .  A
C247        C252   1.390       .  A
C247        H253   1.084       .  S
C248        C249   1.404       .  A
C249        C250   1.393       .  A
C249        H254   1.083       .  S
C250        C251   1.399       .  A
C250        H255   1.084       .  S
C251        C252   1.404       .  A
C252        H256   1.084       .  S
C257        C258   1.401       .  A
C257        C262   1.384       .  A
C257        H263   1.083       .  S
C258        C259   1.404       .  A
C259        C260   1.387       .  A
C259        H264   1.083       .  S
C260        C261   1.402       .  A
C260        H265   1.083       .  S
C261        C262   1.403       .  A
C262        H266   1.083       .  S
C267        C268   1.249       .  T
C269        C270   1.243       .  T
C271        C272   1.242       .  T
C273        C274   1.245       .  T
C275        C276   1.245       .  T
C277        C278   1.244       .  T
