geometry optimzed in LAMMPS
_audit_creation_date              2020-12-01 
_audit_creation_method            'lammps2cif' 
_symmetry_space_group_name_H-M    'P1' 
_symmetry_Int_Tables_number       1 
_symmetry_cell_setting            triclinic 
loop_ 
_symmetry_equiv_pos_as_xyz 
  x,y,z 
_cell_length_a                    29.49285824 
_cell_length_b                    29.675953686933926 
_cell_length_c                    46.032400953437076 
_cell_angle_alpha                 89.75636335514851 
_cell_angle_beta                  90.1555465590681 
_cell_angle_gamma                 119.98733013737792 
loop_ 
_atom_site_label 
_atom_site_type_symbol 
_atom_site_fract_x 
_atom_site_fract_y 
_atom_site_fract_z 
_atom_site_charge 
O1          O  0.70683501  0.53255514  0.49293465    -0.57300
C2          C  0.83571460  0.50208915  0.50245806     0.75300
O3          O  0.69342046  0.39746745  0.53962218    -0.58400
C4          C  0.65779028  0.50245718  0.49585500     0.75300
C5          C  0.71586577  0.42649563  0.44073426     0.77700
Cd6        Cd  0.72681286  0.46209741  0.49929334     1.37500
O7          O  0.81726836  0.53274944  0.50239579    -0.57300
O8          O  0.74177358  0.47363544  0.44838185    -0.56100
C9          C  0.71112840  0.43285408  0.55899518     0.77700
O10         O  0.69290361  0.39304395  0.46088632    -0.58500
O11         O  0.80336911  0.45368820  0.50110474    -0.56900
O12         O  0.64200333  0.45469712  0.50024914    -0.56900
O13         O  0.73453684  0.47951352  0.55009660    -0.56100
O14         O  0.57006883  0.39382989  0.16628974    -0.57300
C15         C  0.60497077  0.26318406  0.16372590     0.75300
O16         O  0.70805124  0.40703958  0.12614740    -0.58400
C17         C  0.60200706  0.44262989  0.16784589     0.75300
C18         C  0.66741607  0.38507388  0.22440582     0.77700
Cd19       Cd  0.63963818  0.37178295  0.16461788     1.37500
O20         O  0.57225899  0.27913117  0.16122698    -0.57300
O21         O  0.62081719  0.36576274  0.21528629    -0.56100
C22         C  0.67492192  0.39760530  0.10588823     0.77700
O23         O  0.70335503  0.39981377  0.20525683    -0.58500
O24         O  0.65274784  0.29766649  0.16616680    -0.56900
O25         O  0.65048771  0.45733649  0.16810361    -0.56900
O26         O  0.62727833  0.37704063  0.11321233    -0.56100
O27         O  0.35114648  0.59809905  0.49544636    -0.57300
C28         C  0.22177967  0.62870666  0.50484134     0.75300
O29         O  0.36992315  0.73559206  0.53851039    -0.58400
C30         C  0.40006208  0.62976818  0.49321342     0.75300
C31         C  0.33541436  0.69760712  0.44056038     0.77700
Cd32       Cd  0.33047885  0.66807313  0.49985204     1.37500
O33         O  0.24031137  0.59812948  0.50521477    -0.57300
O34         O  0.31155171  0.65104688  0.44955699    -0.56100
C35         C  0.35815799  0.70181967  0.55862152     0.77700
O36         O  0.35826480  0.73291165  0.45974086    -0.58500
O37         O  0.25422755  0.67705759  0.50291416    -0.56900
O38         O  0.41501603  0.67790559  0.49343628    -0.56900
O39         O  0.33453039  0.65463864  0.55084890    -0.56100
O40         O  0.49817341  0.74459379  0.16918118    -0.57300
C41         C  0.47435911  0.87687691  0.16501614     0.75300
O42         O  0.35990349  0.73449702  0.12701455    -0.58400
C43         C  0.46759298  0.69563508  0.16835848     0.75300
C44         C  0.39197101  0.75230774  0.22536103     0.77700
Cd45       Cd  0.42810319  0.76597218  0.16633930     1.37500
O46         O  0.50302366  0.85618775  0.16350990    -0.57300
O47         O  0.43964735  0.77441035  0.21798735    -0.56100
C48         C  0.39365322  0.74394137  0.10720129     0.77700
O49         O  0.35853369  0.73459663  0.20479675    -0.58500
O50         O  0.42541839  0.84603414  0.16631829    -0.56900
O51         O  0.41890957  0.67966067  0.16733522    -0.56900
O52         O  0.44086105  0.76393905  0.11515877    -0.56100
O53         O  0.24841891  0.74632400  0.82879446    -0.57300
C54         C  0.40625978  0.87914426  0.84007214     0.75300
O55         O  0.37871223  0.73909436  0.87100778    -0.58400
C56         C  0.23244278  0.69775222  0.82839617     0.75300
C57         C  0.36394000  0.76276812  0.77324631     0.77700
Cd58       Cd  0.34045235  0.77036778  0.83293986     1.37500
O59         O  0.35682081  0.85976017  0.83968021    -0.57300
O60         O  0.34010455  0.78600972  0.78153293    -0.56100
C61         C  0.35129929  0.74300916  0.89113691     0.77700
O62         O  0.37815602  0.74238929  0.79312714    -0.58500
O63         O  0.42337968  0.84787965  0.83710679    -0.56900
O64         O  0.26681320  0.68408520  0.82984704    -0.56900
O65         O  0.31995566  0.75854241  0.88392555    -0.56100
O66         O  0.83069254  0.38698832  0.82978547    -0.57300
C67         C  0.67076764  0.26047781  0.84119072     0.75300
O68         O  0.69812488  0.39751588  0.87046556    -0.58400
C69         C  0.84881294  0.43590660  0.82814130     0.75300
C70         C  0.71750658  0.37929762  0.77439042     0.77700
Cd71       Cd  0.73992897  0.36891913  0.83365976     1.37500
O72         O  0.71997081  0.27834322  0.84203546    -0.57300
O73         O  0.73678424  0.35179852  0.78279227    -0.56100
C74         C  0.72888834  0.40042342  0.89073663     0.77700
O75         O  0.70734186  0.40299970  0.79407927    -0.58500
O76         O  0.65541651  0.29291237  0.83712552    -0.56900
O77         O  0.81618513  0.45185886  0.82830913    -0.56900
O78         O  0.76503984  0.39128662  0.88396010    -0.56100
C79         C  0.60484802  0.11763062  0.86201559    -0.27100
C80         C  0.55533407  0.09869075  0.84910676     0.02500
C81         C  0.54402185  0.13358042  0.83439568     0.30600
C82         C  0.58199436  0.18605219  0.83236572    -0.18900
C83         C  0.63207830  0.20471548  0.84433811    -0.28300
C84         C  0.64331980  0.17011469  0.85944349     0.44600
C85         C  0.51737767  0.04209969  0.84883842     0.05800
O86         O  0.49651455  0.11659121  0.82112675    -0.56800
H87         H  0.57253586  0.21204249  0.82064888     0.18800
O88         O  0.69154844  0.18701840  0.87175074    -0.63500
H89         H  0.61394764  0.09147797  0.87381492     0.17200
C90         C  0.53282688  0.00707820  0.83884788     0.29500
C91         C  0.49601031  0.95439564  0.83625991    -0.24400
C92         C  0.44328423  0.93532782  0.84350325    -0.23700
C93         C  0.42777468  0.97010811  0.85400609     0.40900
C94         C  0.46480754  0.02309590  0.85666974    -0.26100
O95         O  0.58324515  0.02443875  0.82986293    -0.58000
H96         H  0.50885779  0.92851246  0.82795360     0.16500
O97         O  0.37674271  0.95296268  0.86155702    -0.59500
H98         H  0.45236875  0.04948998  0.86466304     0.15000
H99         H  0.68908961  0.19882184  0.89150819     0.46900
H100        H  0.59925072  0.01347158  0.84530102     0.42200
H101        H  0.37476650  0.94524187  0.88265860     0.45700
H102        H  0.50044175  0.10569896  0.80139743     0.37200
C103        C  0.10416945  0.57099742  0.83461486    -0.27100
C104        C  0.06926126  0.58453378  0.82210033     0.02500
C105        C  0.08833571  0.63525844  0.81117850     0.30600
C106        C  0.14150087  0.67209179  0.81368821    -0.18900
C107        C  0.17645795  0.65858947  0.82629844    -0.28300
C108        C  0.15744330  0.60736618  0.83655762     0.44600
C109        C  0.01269147  0.54641287  0.82236537     0.05800
O110        O  0.05533049  0.64910600  0.79795959    -0.56800
H111        H  0.15553773  0.71103983  0.80533278     0.18800
O112        O  0.19038015  0.59254245  0.84891326    -0.63500
H113        H  0.08990789  0.53237078  0.84351941     0.17200
C114        C  0.99283384  0.49612012  0.81081298     0.29500
C115        C  0.93930983  0.45982399  0.81306474    -0.24400
C116        C  0.90523795  0.47341984  0.82652721    -0.23700
C117        C  0.92533214  0.52382428  0.83803786     0.40900
C118        C  0.97859767  0.55978350  0.83588360    -0.26100
O119        O  0.02513523  0.48298729  0.79629570    -0.58000
H120        H  0.92432591  0.42144064  0.80381427     0.16500
O121        O  0.89336731  0.53815213  0.85189995    -0.59500
H122        H  0.99353501  0.59801395  0.84534904     0.15000
H123        H  0.18894518  0.59768335  0.87007756     0.46900
H124        H  0.03016077  0.45951711  0.80964261     0.42200
H125        H  0.89340333  0.52866581  0.87258305     0.45700
H126        H  0.05371774  0.63877722  0.77734939     0.37200
C127        C  0.31401791  0.69887375  0.96886861    -0.27100
C128        C  0.36271428  0.72576071  0.98289937     0.02500
C129        C  0.40829051  0.75461577  0.96594315     0.30600
C130        C  0.40459813  0.75655370  0.93564102    -0.18900
C131        C  0.35565121  0.73173975  0.92191071    -0.28300
C132        C  0.31022290  0.70236853  0.93871020     0.44600
C133        C  0.36579955  0.72510682  0.01517430     0.05800
O134        O  0.45636158  0.78328538  0.97886994    -0.56800
H135        H  0.43970704  0.78030299  0.92306508     0.18800
O136        O  0.26171016  0.67823411  0.92590928    -0.63500
H137        H  0.27866227  0.67593234  0.98138529     0.17200
C138        C  0.33533517  0.73854138  0.03290401     0.29500
C139        C  0.34266064  0.74222685  0.06317466    -0.24400
C140        C  0.38029352  0.73284549  0.07608583    -0.23700
C141        C  0.40888951  0.71707591  0.05846044     0.40900
C142        C  0.40146404  0.71322789  0.02838407    -0.26100
O143        O  0.30106509  0.75173195  0.02069040    -0.58000
H144        H  0.32070858  0.75483346  0.07636224     0.16500
O145        O  0.44505356  0.70622535  0.07041143    -0.59500
H146        H  0.42439331  0.70173791  0.01523877     0.15000
H147        H  0.25585821  0.64377097  0.91969741     0.46900
H148        H  0.26574072  0.72150895  0.02437369     0.42200
H149        H  0.42549263  0.66833722  0.07457511     0.45700
H150        H  0.45764907  0.81571237  0.98546459     0.37200
C151        C  0.36241354  0.68995665  0.64072965    -0.27100
C152        C  0.38519910  0.74189274  0.64955790     0.02500
C153        C  0.40293214  0.78133872  0.62818815     0.30600
C154        C  0.39538296  0.76807936  0.59855634    -0.18900
C155        C  0.37010769  0.71575271  0.58980603    -0.28300
C156        C  0.35497966  0.67667989  0.61135122     0.44600
C157        C  0.38587371  0.75286919  0.68111922     0.05800
O158        O  0.42860452  0.83281620  0.63608922    -0.56800
H159        H  0.40850375  0.79881391  0.58246410     0.18800
O160        O  0.33090562  0.62498048  0.60415322    -0.63500
H161        H  0.34846575  0.65909719  0.65680318     0.17200
C162        C  0.36076617  0.77924969  0.69166233     0.29500
C163        C  0.35544355  0.78318740  0.72157891    -0.24400
C164        C  0.37352994  0.75991408  0.74174975    -0.23700
C165        C  0.39862198  0.73340216  0.73120999     0.40900
C166        C  0.40509106  0.73055386  0.70118212    -0.26100
O167        O  0.33883503  0.79911336  0.67294438    -0.58000
H168        H  0.33546136  0.80332134  0.72892796     0.16500
O169        O  0.41618683  0.70937172  0.74991559    -0.59500
H170        H  0.42377101  0.70936713  0.69346998     0.15000
H171        H  0.35935692  0.61642369  0.60361730     0.46900
H172        H  0.30380193  0.76944456  0.66816211     0.42200
H173        H  0.38793665  0.67242093  0.75044253     0.45700
H174        H  0.40663882  0.84709536  0.62895719     0.37200
C175        C  0.31572647  0.71458661  0.29678338    -0.27100
C176        C  0.35646174  0.74053077  0.31707120     0.02500
C177        C  0.40810461  0.77068944  0.30685540     0.30600
C178        C  0.41828957  0.77467210  0.27702945    -0.18900
C179        C  0.37787855  0.74834379  0.25664541    -0.28300
C180        C  0.32610520  0.71800118  0.26683229     0.44600
C181        C  0.34584392  0.73097813  0.34875139     0.05800
O182        O  0.44939746  0.79282071  0.32593340    -0.56800
H183        H  0.45857974  0.79767821  0.26995085     0.18800
O184        O  0.28554336  0.69057407  0.24790768    -0.63500
H185        H  0.27581231  0.69050442  0.30425924     0.17200
C186        C  0.36601821  0.77185465  0.36919995     0.29500
C187        C  0.36188901  0.76074445  0.39904316    -0.24400
C188        C  0.33656391  0.70908689  0.40906022    -0.23700
C189        C  0.31320897  0.66835173  0.38851362     0.40900
C190        C  0.31834637  0.67953812  0.35881217    -0.26100
O191        O  0.39060680  0.82279969  0.36030562    -0.58000
H192        H  0.37907545  0.79266389  0.41433648     0.16500
O193        O  0.28704911  0.61715432  0.39702952    -0.59500
H194        H  0.30233686  0.64756220  0.34352903     0.15000
H195        H  0.28333148  0.65624799  0.24591131     0.46900
H196        H  0.36194183  0.82979185  0.35523888     0.42200
H197        H  0.24963223  0.60738376  0.39777900     0.45700
H198        H  0.46506370  0.83096320  0.32342195     0.37200
C199        C  0.60464320  0.13575790  0.17430922    -0.27100
C200        C  0.55584991  0.09980373  0.16249895     0.01300
C201        C  0.52383427  0.11827082  0.15075046     0.30600
C202        C  0.53996244  0.17126917  0.15169857    -0.18900
C203        C  0.58858002  0.20717664  0.16357696    -0.28300
C204        C  0.62115398  0.18897800  0.17487171     0.44600
C205        C  0.53699446  0.04299895  0.16396623     0.05800
O206        O  0.47652202  0.08480363  0.13821397    -0.56800
H207        H  0.51454776  0.18438401  0.14269056     0.18800
O208        O  0.66877769  0.22262715  0.18704850    -0.63500
H209        H  0.62949225  0.12247977  0.18390523     0.17200
C210        C  0.56804341  0.02176492  0.15482987     0.29500
C211        C  0.54771900  0.96766564  0.15574975    -0.24400
C212        C  0.49634388  0.93403885  0.16536541    -0.23700
C213        C  0.46592163  0.95561869  0.17502413     0.40900
C214        C  0.48650301  0.00938147  0.17459683    -0.26100
O215        O  0.61700531  0.05317375  0.14345046    -0.58000
H216        H  0.57175008  0.95196222  0.14817727     0.16500
O217        O  0.41564326  0.92459703  0.18472945    -0.59500
H218        H  0.46252222  0.02489781  0.18252349     0.15000
H219        H  0.66157694  0.22357411  0.20799106     0.46900
H220        H  0.64179126  0.05360911  0.15821688     0.42200
H221        H  0.41901236  0.91962757  0.20577490     0.45700
H222        H  0.48509000  0.07799217  0.11850183     0.37200
C223        C  0.47911523  0.57527241  0.15658288    -0.27100
C224        C  0.52732803  0.58969964  0.16996422     0.02500
C225        C  0.55607796  0.63965359  0.18238588     0.30600
C226        C  0.53654307  0.67398044  0.18127807    -0.18900
C227        C  0.48774734  0.65897084  0.16857063    -0.28300
C228        C  0.45902050  0.60910876  0.15608087     0.44600
C229        C  0.54705114  0.55235863  0.17064538     0.05800
O230        O  0.60288320  0.65509938  0.19612855    -0.56800
H231        H  0.55912982  0.71209350  0.19102529     0.18800
O232        O  0.41152998  0.59313953  0.14301440    -0.63500
H233        H  0.45697741  0.53762143  0.14626695     0.17200
C234        C  0.51418869  0.50003758  0.17900949     0.29500
C235        C  0.53243220  0.46470633  0.17785683    -0.24400
C236        C  0.58385036  0.48085059  0.16913432    -0.23700
C237        C  0.61724555  0.53350603  0.16147648     0.40900
C238        C  0.59865449  0.56858252  0.16210039    -0.26100
O239        O  0.46414663  0.48302239  0.18849557    -0.58000
H240        H  0.50635714  0.42462821  0.18414764     0.16500
O241        O  0.66783124  0.55105681  0.15275492    -0.59500
H242        H  0.62440619  0.60838684  0.15522880     0.15000
H243        H  0.41989669  0.60560522  0.12267793     0.46900
H244        H  0.46704635  0.48709853  0.20991605     0.42200
H245        H  0.66531424  0.54163865  0.13193774     0.45700
H246        H  0.59342877  0.64022206  0.21597690     0.37200
C247        C  0.73515327  0.40308689  0.03232088    -0.27100
C248        C  0.70607941  0.41758055  0.01411340     0.02500
C249        C  0.66984412  0.42939323  0.02682553     0.30600
C250        C  0.66132656  0.42415359  0.05684374    -0.18900
C251        C  0.68961738  0.40870668  0.07491356    -0.28300
C252        C  0.72761613  0.39926633  0.06250947     0.44600
C253        C  0.71217288  0.41812855  0.98195100     0.05800
O254        O  0.64202278  0.44551961  0.01009174    -0.56800
H255        H  0.63214234  0.43190847  0.06605843     0.18800
O256        O  0.75599072  0.38414310  0.07948499    -0.63500
H257        H  0.76267025  0.39307520  0.02306283     0.17200
C258        C  0.76207065  0.44273938  0.96892027     0.29500
C259        C  0.76689979  0.43864993  0.93888503    -0.24400
C260        C  0.72242187  0.41132438  0.92126190    -0.23700
C261        C  0.67247644  0.38928920  0.93397286     0.40900
C262        C  0.66763598  0.39221023  0.96409484    -0.26100
O263        O  0.80616306  0.47199712  0.98529039    -0.58000
H264        H  0.80565363  0.45643211  0.92936622     0.16500
O265        O  0.62819251  0.36274825  0.91736862    -0.59500
H266        H  0.62886781  0.37267151  0.97360950     0.15000
H267        H  0.73360123  0.34589395  0.08165741     0.46900
H268        H  0.82523610  0.45236564  0.98556892     0.42200
H269        H  0.61919597  0.32577975  0.91832941     0.45700
H270        H  0.66667226  0.48283952  0.00595107     0.37200
C271        C  0.66874394  0.36444384  0.63239984    -0.27100
C272        C  0.69808754  0.40606414  0.65141562     0.02500
C273        C  0.73184216  0.45569871  0.63986054     0.30600
C274        C  0.73513169  0.46338752  0.60981677    -0.18900
C275        C  0.70584382  0.42196900  0.59063401    -0.28300
C276        C  0.67283851  0.37195228  0.60220031     0.44600
C277        C  0.69765350  0.39645316  0.68303517     0.05800
O278        O  0.76460310  0.49599670  0.65767841    -0.56800
H279        H  0.76184458  0.50199215  0.60154292     0.18800
O280        O  0.64427622  0.33027531  0.58433408    -0.63500
H281        H  0.64324379  0.32579746  0.64102662     0.17200
C282        C  0.68807315  0.42578530  0.70361826     0.29500
C283        C  0.69374137  0.41940241  0.73335533    -0.24400
C284        C  0.70846516  0.38356110  0.74303194    -0.23700
C285        C  0.71613953  0.35296441  0.72227080     0.40900
C286        C  0.71043360  0.35943360  0.69269499    -0.26100
O287        O  0.67383708  0.46122790  0.69490648    -0.58000
H288        H  0.68736639  0.44311001  0.74880740     0.16500
O289        O  0.72929541  0.31647876  0.73052814    -0.59500
H290        H  0.71781337  0.33653385  0.67713873     0.15000
H291        H  0.66649481  0.31423494  0.58143823     0.46900
H292        H  0.63563840  0.44041328  0.69098702     0.42200
H293        H  0.76760714  0.33336340  0.72758264     0.45700
H294        H  0.75218085  0.52146102  0.65660772     0.37200
C295        C  0.98055768  0.58498615  0.51792742    -0.27100
C296        C  0.00004993  0.55550198  0.50473027     0.02500
C297        C  0.96492768  0.50814150  0.49120014     0.30600
C298        C  0.91145905  0.49104425  0.49105461    -0.18900
C299        C  0.89221134  0.52115671  0.50360930    -0.28300
C300        C  0.92712969  0.56838483  0.51721975     0.44600
C301        C  0.05695297  0.57452834  0.50516577     0.05800
O302        O  0.98245098  0.47860270  0.47768296    -0.56800
H303        H  0.88505772  0.45458071  0.48047407     0.18800
O304        O  0.90946860  0.59818236  0.53027918    -0.63500
H305        H  0.00677946  0.62081581  0.52907999     0.17200
C306        C  0.09316092  0.62587697  0.49678955     0.29500
C307        C  0.14667927  0.64304096  0.49734066    -0.24400
C308        C  0.16507791  0.60952744  0.50585256    -0.23700
C309        C  0.12888177  0.55821496  0.51435779     0.40900
C310        C  0.07532155  0.54117848  0.51407318    -0.26100
O311        O  0.07646658  0.65864394  0.48653042    -0.58000
H312        H  0.17376727  0.68248398  0.49038864     0.16500
O313        O  0.14525882  0.52436113  0.52297710    -0.59500
H314        H  0.04804635  0.50180971  0.52103775     0.15000
H315        H  0.90012310  0.58438086  0.55036602     0.46900
H316        H  0.08525050  0.68492419  0.50199504     0.42200
H317        H  0.14961314  0.52856547  0.54434355     0.45700
H318        H  0.99116826  0.49249798  0.45759231     0.37200
C319        C  0.52655967  0.62707831  0.49837709    -0.27100
C320        C  0.51094695  0.57673574  0.48864928     0.02500
C321        C  0.45872450  0.54404695  0.47971559     0.30600
C322        C  0.42282728  0.56171691  0.48104265    -0.18900
C323        C  0.43842958  0.61199455  0.49104305    -0.28300
C324        C  0.49084819  0.64479141  0.49967372     0.44600
C325        C  0.54864221  0.55773944  0.48968308     0.05800
O326        O  0.44219380  0.49452907  0.47006489    -0.56800
H327        H  0.38276001  0.53607082  0.47425966     0.18800
O328        O  0.50734460  0.69371358  0.51031216    -0.63500
H329        H  0.56623168  0.65222769  0.50592026     0.17200
C330        C  0.59814584  0.58560282  0.47638219     0.29500
C331        C  0.63371965  0.56753671  0.47873460    -0.24400
C332        C  0.62039784  0.52162800  0.49411952    -0.23700
C333        C  0.57070224  0.49378313  0.50731686     0.40900
C334        C  0.53548918  0.51205216  0.50514009    -0.26100
O335        O  0.61111730  0.62921660  0.46007332    -0.58000
H336        H  0.67140303  0.58899497  0.46808174     0.16500
O337        O  0.55613897  0.44880556  0.52260390    -0.59500
H338        H  0.49789757  0.49073265  0.51591009     0.15000
H339        H  0.49828688  0.68860048  0.53125715     0.46900
H340        H  0.63706463  0.65888425  0.47186558     0.42200
H341        H  0.56935017  0.46022491  0.54261278     0.45700
H342        H  0.45676287  0.49883187  0.45020898     0.37200
C343        C  0.74406966  0.43865995  0.35992024    -0.27100
C344        C  0.69953557  0.39503274  0.34896111     0.02500
C345        C  0.66267238  0.35847877  0.36859280     0.30600
C346        C  0.66972287  0.36727199  0.39870649    -0.18900
C347        C  0.71258482  0.41293050  0.40952403    -0.28300
C348        C  0.75051897  0.44812165  0.38977407     0.44600
C349        C  0.69081616  0.39067899  0.31704477     0.05800
O350        O  0.61998678  0.31399221  0.35848803    -0.56800
H351        H  0.64044377  0.33950815  0.41347110     0.18800
O352        O  0.79416916  0.49222103  0.39941077    -0.63500
H353        H  0.77297156  0.46690959  0.34516793     0.17200
C354        C  0.64578331  0.38842266  0.30504777     0.29500
C355        C  0.63932464  0.38722875  0.27493861    -0.24400
C356        C  0.67767572  0.38915858  0.25607100    -0.23700
C357        C  0.72319425  0.39225786  0.26798346     0.40900
C358        C  0.72963093  0.39331925  0.29825682    -0.26100
O359        O  0.60828237  0.38857494  0.32253802    -0.58000
H360        H  0.60415365  0.38527667  0.26632512     0.16500
O361        O  0.76114645  0.39337438  0.25035934    -0.59500
H362        H  0.76489641  0.39585991  0.30712659     0.15000
H363        H  0.78742323  0.52111863  0.39523980     0.46900
H364        H  0.61980300  0.42580542  0.32564135     0.42200
H365        H  0.75084026  0.35632070  0.24745610     0.45700
H366        H  0.58913806  0.31731326  0.36350757     0.37200
loop_ 
_geom_bond_atom_site_label_1 
_geom_bond_atom_site_label_2 
_geom_bond_distance 
_geom_bond_site_symmetry_2 
_ccdc_geom_bond_type 
O1            C4   1.271       .  A
O1           Cd6   2.456       .  S
C2           O11   1.268       .  A
C2            O7   1.272       .  A
C2          C299   1.469       .  S
O3            C9   1.276       .  A
O3           Cd6   2.487       .  S
C4           O12   1.267       .  A
C4          C332   1.474       .  S
C5           O10   1.276       .  A
C5            O8   1.265       .  A
C5          C347   1.483       .  S
Cd6          O13   2.383       .  S
Cd6          O12   2.400       .  S
Cd6          O11   2.394       .  S
Cd6           O7   2.438       .  S
Cd6          O10   2.510       .  S
Cd6           O8   2.377       .  S
C9           O13   1.266       .  A
C9          C275   1.482       .  S
O14          C17   1.275       .  A
O14         Cd19   2.447       .  S
C15          O24   1.267       .  A
C15          O20   1.274       .  A
C15         C203   1.481       .  S
O16          C22   1.275       .  A
O16         Cd19   2.489       .  S
C17          O25   1.269       .  A
C17         C236   1.478       .  S
C18          O23   1.277       .  A
C18          O21   1.267       .  A
C18         C356   1.481       .  S
Cd19         O26   2.410       .  S
Cd19         O25   2.401       .  S
Cd19         O24   2.417       .  S
Cd19         O20   2.464       .  S
Cd19         O23   2.481       .  S
Cd19         O21   2.384       .  S
C22          O26   1.267       .  A
C22         C251   1.479       .  S
O27          C30   1.273       .  A
O27         Cd32   2.448       .  S
C28          O37   1.269       .  A
C28          O33   1.272       .  A
C28         C308   1.474       .  S
O29          C35   1.276       .  A
O29         Cd32   2.495       .  S
C30          O38   1.267       .  A
C30         C323   1.472       .  S
C31          O36   1.277       .  A
C31          O34   1.265       .  A
C31         C188   1.485       .  S
Cd32         O39   2.392       .  S
Cd32         O38   2.380       .  S
Cd32         O37   2.398       .  S
Cd32         O33   2.434       .  S
Cd32         O36   2.487       .  S
Cd32         O34   2.377       .  S
C35          O39   1.266       .  A
C35         C155   1.487       .  S
O40          C43   1.271       .  A
O40         Cd45   2.449       .  S
C41          O50   1.267       .  A
C41          O46   1.271       .  A
C41         C212   1.483       .  S
O42          C48   1.275       .  A
O42         Cd45   2.512       .  S
C43          O51   1.268       .  A
C43         C227   1.478       .  S
C44          O49   1.275       .  A
C44          O47   1.265       .  A
C44         C179   1.488       .  S
Cd45         O52   2.393       .  S
Cd45         O51   2.437       .  S
Cd45         O50   2.416       .  S
Cd45         O46   2.480       .  S
Cd45         O49   2.511       .  S
Cd45         O47   2.397       .  S
C48          O52   1.264       .  A
C48         C140   1.479       .  S
O53          C56   1.273       .  A
O53         Cd58   2.444       .  S
C54          O63   1.267       .  A
C54          O59   1.272       .  A
C54          C92   1.476       .  S
O55          C61   1.275       .  A
O55         Cd58   2.496       .  S
C56          O64   1.268       .  A
C56         C107   1.472       .  S
C57          O62   1.275       .  A
C57          O60   1.266       .  A
C57         C164   1.489       .  S
Cd58         O65   2.405       .  S
Cd58         O64   2.395       .  S
Cd58         O63   2.385       .  S
Cd58         O59   2.468       .  S
Cd58         O62   2.496       .  S
Cd58         O60   2.411       .  S
C61          O65   1.265       .  A
C61         C131   1.474       .  S
O66          C69   1.274       .  A
O66         Cd71   2.460       .  S
C67          O76   1.265       .  A
C67          O72   1.272       .  A
C67          C83   1.474       .  S
O68          C74   1.272       .  A
O68         Cd71   2.486       .  S
C69          O77   1.267       .  A
C69         C116   1.470       .  S
C70          O75   1.274       .  A
C70          O73   1.264       .  A
C70         C284   1.484       .  S
Cd71         O78   2.421       .  S
Cd71         O77   2.375       .  S
Cd71         O76   2.388       .  S
Cd71         O72   2.476       .  S
Cd71         O75   2.493       .  S
Cd71         O73   2.390       .  S
C74          O78   1.265       .  A
C74         C260   1.477       .  S
C79          C80   1.407       .  A
C79          C84   1.400       .  A
C79          H89   1.083       .  S
C80          C85   1.481       .  S
C80          C81   1.407       .  A
C81          C82   1.394       .  A
C81          O86   1.372       .  S
C82          C83   1.405       .  A
C82          H87   1.084       .  S
C83          C84   1.407       .  A
C84          O88   1.371       .  S
C85          C90   1.406       .  A
C85          C94   1.407       .  A
O86         H102   0.992       .  S
O88          H99   0.992       .  S
C90          C91   1.393   1_545  A
C90          O95   1.372       .  S
C91          C92   1.404       .  A
C91          H96   1.084       .  S
C92          C93   1.409       .  A
C93          C94   1.402   1_565  A
C93          O97   1.371       .  S
C94          H98   1.083       .  S
O95         H100   0.992       .  S
O97         H101   0.992       .  S
C103        C104   1.401       .  A
C103        C108   1.395       .  A
C103        H113   1.083       .  S
C104        C109   1.475       .  S
C104        C105   1.408       .  A
C105        C106   1.398       .  A
C105        O110   1.372       .  S
C106        C107   1.403       .  A
C106        H111   1.084       .  S
C107        C108   1.411       .  A
C108        O112   1.372       .  S
C109        C114   1.409   1_455  A
C109        C118   1.400   1_455  A
O110        H126   0.992       .  S
O112        H123   0.991       .  S
C114        C115   1.401       .  A
C114        O119   1.372   1_655  S
C115        C116   1.403       .  A
C115        H120   1.084       .  S
C116        C117   1.410       .  A
C117        C118   1.393       .  A
C117        O121   1.372       .  S
C118        H122   1.084       .  S
O119        H124   0.992       .  S
O121        H125   0.992       .  S
C127        C128   1.404       .  A
C127        C132   1.400       .  A
C127        H137   1.083       .  S
C128        C133   1.489   1_556  S
C128        C129   1.414       .  A
C129        C130   1.402       .  A
C129        O134   1.372       .  S
C130        C131   1.401       .  A
C130        H135   1.084       .  S
C131        C132   1.409       .  A
C132        O136   1.372       .  S
C133        C138   1.413       .  A
C133        C142   1.402       .  A
O134        H150   0.993       .  S
O136        H147   0.992       .  S
C138        C139   1.406       .  A
C138        O143   1.372       .  S
C139        C140   1.402       .  A
C139        H144   1.083       .  S
C140        C141   1.411       .  A
C141        C142   1.397       .  A
C141        O145   1.372       .  S
C142        H146   1.084       .  S
O143        H148   0.992       .  S
O145        H149   0.992       .  S
C151        C152   1.400       .  A
C151        C156   1.396       .  A
C151        H161   1.084       .  S
C152        C157   1.488       .  S
C152        C153   1.412       .  A
C153        C154   1.407       .  A
C153        O158   1.373       .  S
C154        C155   1.406       .  A
C154        H159   1.083       .  S
C155        C156   1.415       .  A
C156        O160   1.372       .  S
C157        C162   1.408       .  A
C157        C166   1.407       .  A
O158        H174   0.989       .  S
O160        H171   0.991       .  S
C162        C163   1.398       .  A
C162        O167   1.372       .  S
C163        C164   1.408       .  A
C163        H168   1.083       .  S
C164        C165   1.410       .  A
C165        C166   1.405       .  A
C165        O169   1.371       .  S
C166        H170   1.084       .  S
O167        H172   0.991       .  S
O169        H173   0.992       .  S
C175        C176   1.408       .  A
C175        C180   1.405       .  A
C175        H185   1.084       .  S
C176        C181   1.488       .  S
C176        C177   1.407       .  A
C177        C178   1.398       .  A
C177        O182   1.373       .  S
C178        C179   1.407       .  A
C178        H183   1.083       .  S
C179        C180   1.410       .  A
C180        O184   1.371       .  S
C181        C186   1.413       .  A
C181        C190   1.400       .  A
O182        H198   0.992       .  S
O184        H195   0.992       .  S
C186        C187   1.403       .  A
C186        O191   1.371       .  S
C187        C188   1.404       .  A
C187        H192   1.083       .  S
C188        C189   1.416       .  A
C189        C190   1.396       .  A
C189        O193   1.372       .  S
C190        H194   1.084       .  S
O191        H196   0.993       .  S
O193        H197   0.992       .  S
C199        C200   1.404       .  A
C199        C204   1.401       .  A
C199        H209   1.083       .  S
C200        C205   1.489       .  S
C200        C201   1.413       .  A
C201        C202   1.398       .  A
C201        O206   1.372       .  S
C202        C203   1.401       .  A
C202        H207   1.083       .  S
C203        C204   1.414       .  A
C204        O208   1.372       .  S
C205        C210   1.412       .  A
C205        C214   1.403       .  A
O206        H222   0.991       .  S
O208        H219   0.991       .  S
C210        C211   1.406   1_545  A
C210        O215   1.372       .  S
C211        C212   1.406       .  A
C211        H216   1.083       .  S
C212        C213   1.411       .  A
C213        C214   1.395   1_565  A
C213        O217   1.372       .  S
C214        H218   1.083       .  S
O215        H220   0.992       .  S
O217        H221   0.991       .  S
C223        C224   1.405       .  A
C223        C228   1.398       .  A
C223        H233   1.083       .  S
C224        C229   1.487       .  S
C224        C225   1.411       .  A
C225        C226   1.399       .  A
C225        O230   1.372       .  S
C226        C227   1.403       .  A
C226        H231   1.083       .  S
C227        C228   1.410       .  A
C228        O232   1.372       .  S
C229        C234   1.411       .  A
C229        C238   1.404       .  A
O230        H246   0.991       .  S
O232        H243   0.991       .  S
C234        C235   1.399       .  A
C234        O239   1.371       .  S
C235        C236   1.402       .  A
C235        H240   1.083       .  S
C236        C237   1.412       .  A
C237        C238   1.399       .  A
C237        O241   1.372       .  S
C238        H242   1.083       .  S
O239        H244   0.992       .  S
O241        H245   0.991       .  S
C247        C248   1.409       .  A
C247        C252   1.403       .  A
C247        H257   1.083       .  S
C248        C253   1.491   1_554  S
C248        C249   1.410       .  A
C249        C250   1.399       .  A
C249        O254   1.372       .  S
C250        C251   1.405       .  A
C250        H255   1.084       .  S
C251        C252   1.407       .  A
C252        O256   1.372       .  S
C253        C258   1.409       .  A
C253        C262   1.408       .  A
O254        H270   0.993       .  S
O256        H267   0.992       .  S
C258        C259   1.402       .  A
C258        O263   1.373       .  S
C259        C260   1.405       .  A
C259        H264   1.084       .  S
C260        C261   1.407       .  A
C261        C262   1.402       .  A
C261        O265   1.372       .  S
C262        H266   1.083       .  S
O263        H268   0.992       .  S
O265        H269   0.992       .  S
C271        C272   1.406       .  A
C271        C276   1.403       .  A
C271        H281   1.084       .  S
C272        C277   1.481       .  S
C272        C273   1.405       .  A
C273        C274   1.396       .  A
C273        O278   1.373       .  S
C274        C275   1.407       .  A
C274        H279   1.083       .  S
C275        C276   1.409       .  A
C276        O280   1.371       .  S
C277        C282   1.411       .  A
C277        C286   1.398       .  A
O278        H294   0.992       .  S
O280        H291   0.993       .  S
C282        C283   1.402       .  A
C282        O287   1.371       .  S
C283        C284   1.405       .  A
C283        H288   1.083       .  S
C284        C285   1.415       .  A
C285        C286   1.396       .  A
C285        O289   1.372       .  S
C286        H290   1.084       .  S
O287        H292   0.994       .  S
O289        H293   0.990       .  S
C295        C296   1.405   1_655  A
C295        C300   1.397       .  A
C295        H305   1.083   1_655  S
C296        C301   1.479       .  S
C296        C297   1.409   1_455  A
C297        C298   1.394       .  A
C297        O302   1.372       .  S
C298        C299   1.403       .  A
C298        H303   1.084       .  S
C299        C300   1.407       .  A
C300        O304   1.372       .  S
C301        C306   1.408       .  A
C301        C310   1.404       .  A
O302        H318   0.992       .  S
O304        H315   0.992       .  S
C306        C307   1.396       .  A
C306        O311   1.373       .  S
C307        C308   1.404       .  A
C307        H312   1.084       .  S
C308        C309   1.409       .  A
C309        C310   1.397       .  A
C309        O313   1.371       .  S
C310        H314   1.083       .  S
O311        H316   0.992       .  S
O313        H317   0.992       .  S
C319        C320   1.400       .  A
C319        C324   1.394       .  A
C319        H329   1.083       .  S
C320        C325   1.477       .  S
C320        C321   1.410       .  A
C321        C322   1.398       .  A
C321        O326   1.372       .  S
C322        C323   1.403       .  A
C322        H327   1.084       .  S
C323        C324   1.411       .  A
C324        O328   1.372       .  S
C325        C330   1.409       .  A
C325        C334   1.401       .  A
O326        H342   0.991       .  S
O328        H339   0.992       .  S
C330        C331   1.400       .  A
C330        O335   1.372       .  S
C331        C332   1.404       .  A
C331        H336   1.084       .  S
C332        C333   1.411       .  A
C333        C334   1.394       .  A
C333        O337   1.372       .  S
C334        H338   1.084       .  S
O335        H340   0.992       .  S
O337        H341   0.992       .  S
C343        C344   1.399       .  A
C343        C348   1.397       .  A
C343        H353   1.084       .  S
C344        C349   1.486       .  S
C344        C345   1.412       .  A
C345        C346   1.407       .  A
C345        O350   1.373       .  S
C346        C347   1.404       .  A
C346        H351   1.083       .  S
C347        C348   1.414       .  A
C348        O352   1.373       .  S
C349        C354   1.407       .  A
C349        C358   1.407       .  A
O350        H366   0.991       .  S
O352        H363   0.990       .  S
C354        C355   1.397       .  A
C354        O359   1.372       .  S
C355        C356   1.406       .  A
C355        H360   1.084       .  S
C356        C357   1.409       .  A
C357        C358   1.404       .  A
C357        O361   1.371       .  S
C358        H362   1.083       .  S
O359        H364   0.991       .  S
O361        H365   0.993       .  S
