geometry optimzed in LAMMPS
_audit_creation_date              2020-12-01 
_audit_creation_method            'lammps2cif' 
_symmetry_space_group_name_H-M    'P1' 
_symmetry_Int_Tables_number       1 
_symmetry_cell_setting            triclinic 
loop_ 
_symmetry_equiv_pos_as_xyz 
  x,y,z 
_cell_length_a                    35.51155547 
_cell_length_b                    35.5259232886185 
_cell_length_c                    45.390838526422485 
_cell_angle_alpha                 89.98600306033181 
_cell_angle_beta                  89.9405825234881 
_cell_angle_gamma                 119.98249704242727 
loop_ 
_atom_site_label 
_atom_site_type_symbol 
_atom_site_fract_x 
_atom_site_fract_y 
_atom_site_fract_z 
_atom_site_charge 
O1          O  0.67965347  0.70915315  0.34547743    -0.72000
O2          O  0.78613755  0.81647614  0.34557615    -0.72200
O3          O  0.71769628  0.77853674  0.30932077    -0.72100
O4          O  0.74870252  0.74765988  0.38177527    -0.72100
O5          O  0.77920571  0.71710344  0.35777498    -0.72000
O6          O  0.74918903  0.74892711  0.28537761    -0.72100
O7          O  0.81726229  0.78617560  0.32199454    -0.72000
O8          O  0.71050685  0.67923317  0.32114569    -0.72200
V9          V  0.73352455  0.76224705  0.34507728     1.35200
V10         V  0.76330899  0.73332423  0.32204351     1.35200
C11         C  0.67683547  0.67586141  0.33322066     0.77200
C12         C  0.81990861  0.81963021  0.33383015     0.77300
C13         C  0.72916280  0.77001501  0.28498116     0.77200
C14         C  0.77006806  0.72790220  0.38214542     0.77100
O15         O  0.31647520  0.28561981  0.34468537    -0.72000
O16         O  0.20903603  0.17934886  0.34536032    -0.72200
O17         O  0.27765759  0.21597008  0.30903273    -0.72100
O18         O  0.24724393  0.24846346  0.38108842    -0.72100
O19         O  0.21634920  0.27830557  0.35675573    -0.72000
O20         O  0.24831085  0.24733471  0.28468190    -0.72100
O21         O  0.17910747  0.20971624  0.32051582    -0.72000
O22         O  0.28609791  0.31653528  0.32098680    -0.72200
V23         V  0.26212705  0.23306928  0.34457627     1.35200
V24         V  0.23317398  0.26249815  0.32120312     1.35200
C25         C  0.31963605  0.31928907  0.33279786     0.77200
C26         C  0.17577112  0.17631161  0.33293836     0.77300
C27         C  0.26744813  0.22536439  0.28454288     0.77200
C28         C  0.22560846  0.26794308  0.38123889     0.77100
O29         O  0.02972453  0.71016826  0.65377667    -0.72000
O30         O  0.02925989  0.81678265  0.65407945    -0.72200
O31         O  0.06164567  0.77980794  0.68959034    -0.72100
O32         O  0.99724802  0.74773485  0.61819622    -0.72100
O33         O  0.93701952  0.71811604  0.64316858    -0.72000
O34         O  0.00143924  0.74864582  0.71457465    -0.72100
O35         O  0.96947578  0.78664714  0.67955374    -0.72000
O36         O  0.96894804  0.67947834  0.67814303    -0.72200
V37         V  0.02828003  0.76289426  0.65438715     1.35200
V38         V  0.97038795  0.73367955  0.67837638     1.32200
C39         C  0.99934366  0.67654424  0.66581150     0.77200
C40         C  0.99946262  0.82002068  0.66702850     0.77300
C41         C  0.04254688  0.77059357  0.71428832     0.77200
C42         C  0.95613981  0.72845254  0.61848147     0.77100
O43         O  0.02934516  0.31653013  0.67876836    -0.72000
O44         O  0.03019272  0.21013173  0.67871765    -0.72200
O45         O  0.06096534  0.27890358  0.64265620    -0.72100
O46         O  0.99844234  0.24710395  0.71488504    -0.72100
O47         O  0.93758573  0.21637857  0.69072727    -0.72000
O48         O  0.00010871  0.24817364  0.61849685    -0.72100
O49         O  0.96931677  0.17931856  0.65457300    -0.72000
O50         O  0.96843978  0.28582983  0.65466514    -0.72200
V51         V  0.02853117  0.26268039  0.67829442     1.35200
V52         V  0.97003639  0.23313835  0.65508709     1.35200
C53         C  0.99886652  0.31945433  0.66662918     0.77200
C54         C  0.99993048  0.17655102  0.66664848     0.77300
C55         C  0.04122825  0.26812399  0.61823790     0.77200
C56         C  0.95733603  0.22539666  0.71514347     0.77100
O57         O  0.68037638  0.96799816  0.98810597    -0.72000
O58         O  0.78748480  0.96841400  0.98759656    -0.72200
O59         O  0.71869436  0.93635590  0.02373904    -0.72100
O60         O  0.74977021  0.99999409  0.95201818    -0.72100
O61         O  0.78031487  0.06045652  0.97662021    -0.72000
O62         O  0.74858705  0.99679744  0.04836486    -0.72100
O63         O  0.81759858  0.02867780  0.01243305    -0.72000
O64         O  0.71064077  0.02856400  0.01259487    -0.72200
V65         V  0.73453344  0.96936214  0.98835408     1.35200
V66         V  0.76356088  0.02744846  0.01202399     1.35200
C67         C  0.67721809  0.99827396  0.00036649     0.77200
C68         C  0.82083048  0.99860277  0.99994428     0.77300
C69         C  0.72928817  0.95571547  0.04829965     0.77200
C70         C  0.77136473  0.04107890  0.95205728     0.77100
O71         O  0.31817396  0.03046144  0.98704713    -0.72000
O72         O  0.21088008  0.02972921  0.98636882    -0.72200
O73         O  0.27936730  0.06144626  0.02283794    -0.72100
O74         O  0.24918386  0.99883132  0.95067265    -0.72100
O75         O  0.21796614  0.93803943  0.97495605    -0.72000
O76         O  0.24984787  0.00064464  0.04710829    -0.72100
O77         O  0.18084769  0.96955569  0.01139565    -0.72000
O78         O  0.28752613  0.96918515  0.01078084    -0.72200
V79         V  0.26393084  0.02894994  0.98721574     1.35200
V80         V  0.23474949  0.97053383  0.01057319     1.35200
C81         C  0.32113349  0.99981674  0.99890452     0.77200
C82         C  0.17760664  0.99961792  0.99889915     0.77300
C83         C  0.26903350  0.04172557  0.04731236     0.77200
C84         C  0.22749103  0.95773932  0.95047378     0.77100
C85         C  0.86250006  0.99874403  0.99976974    -0.03600
C86         C  0.89910058  0.03179543  0.01427931    -0.09300
C87         C  0.93849458  0.03188372  0.01410122    -0.17000
C88         C  0.94178372  0.99901914  0.99942041     0.25200
C89         C  0.90556814  0.96602406  0.98490904    -0.18600
C90         C  0.86612720  0.96583969  0.98507637    -0.07600
C91         C  0.98230532  0.99914058  0.99926286    -0.14000
C92         C  0.01626584  0.99923871  0.99916126    -0.13700
C93         C  0.05677957  0.99934254  0.99908626     0.25100
C94         C  0.09033717  0.02716790  0.98012666    -0.19100
C95         C  0.12980794  0.02740175  0.98011521    -0.07600
C96         C  0.13600576  0.99954625  0.99896084    -0.03700
C97         C  0.10205716  0.97160153  0.01787812    -0.09000
C98         C  0.06272168  0.97162907  0.01798877    -0.16600
H99         H  0.89729622  0.05754813  0.02578816     0.11500
H100        H  0.96636421  0.05756243  0.02540429     0.10800
H101        H  0.90781157  0.94044158  0.97347601     0.10700
H102        H  0.83852523  0.93998931  0.97369394     0.11300
H103        H  0.08601298  0.04870500  0.96538774     0.11300
H104        H  0.15533992  0.04913967  0.96524282     0.11300
H105        H  0.10600372  0.94994061  0.03271097     0.11400
H106        H  0.03694741  0.95001971  0.03277975     0.10200
C107        C  0.36276407  0.99974289  0.99889533    -0.03600
C108        C  0.39977899  0.03333435  0.98500426    -0.09300
C109        C  0.43909420  0.03319098  0.98506802    -0.17000
C110        C  0.44192024  0.99954278  0.99901117     0.25200
C111        C  0.40525954  0.96597374  0.01285268    -0.18600
C112        C  0.36591622  0.96602463  0.01279987    -0.07600
C113        C  0.48241280  0.99946749  0.99919073    -0.14000
C114        C  0.51624925  0.99923833  0.99945787    -0.13700
C115        C  0.55659448  0.99887305  0.99980997     0.25100
C116        C  0.59226664  0.03073353  0.01544417    -0.19100
C117        C  0.63154357  0.03053175  0.01568504    -0.07600
C118        C  0.63558110  0.99833763  0.00031351    -0.03700
C119        C  0.59949214  0.96634823  0.98475173    -0.09000
C120        C  0.56028040  0.96667787  0.98448993    -0.16600
H121        H  0.39836846  0.05971211  0.97409126     0.11500
H122        H  0.46727717  0.05933126  0.97427777     0.10800
H123        H  0.40708743  0.93976586  0.02370924     0.10700
H124        H  0.33800984  0.93971261  0.02367761     0.11300
H125        H  0.58975140  0.05578336  0.02740573     0.11300
H126        H  0.65871357  0.05554775  0.02790139     0.11300
H127        H  0.60160220  0.94117781  0.97267523     0.11400
H128        H  0.53286909  0.94186055  0.97231883     0.10200
C129        C  0.93306423  0.20946221  0.74317827    -0.03600
C130        C  0.88739499  0.18428407  0.74317254    -0.09300
C131        C  0.86468205  0.16625623  0.76937727    -0.17000
C132        C  0.88726289  0.17317930  0.79590819     0.25200
C133        C  0.93263474  0.19886507  0.79621961    -0.18600
C134        C  0.95541807  0.21694879  0.77005054    -0.07600
C135        C  0.86409120  0.15262609  0.82259545    -0.14000
C136        C  0.84539490  0.13432901  0.84489999    -0.13700
C137        C  0.82431161  0.11144148  0.87155222     0.25100
C138        C  0.83350174  0.13371852  0.89838257    -0.19100
C139        C  0.81510589  0.11102804  0.92453287    -0.07600
C140        C  0.78736983  0.06567800  0.92416656    -0.03700
C141        C  0.77754286  0.04371670  0.89700555    -0.09000
C142        C  0.79592325  0.06648159  0.87089005    -0.16600
H143        H  0.86925964  0.17780379  0.72283887     0.11500
H144        H  0.82957495  0.14634464  0.76886154     0.10800
H145        H  0.95046650  0.20434612  0.81661847     0.10700
H146        H  0.99056245  0.23601778  0.77077103     0.11300
H147        H  0.85551418  0.16849985  0.89916620     0.11300
H148        H  0.82345190  0.12883244  0.94509745     0.11300
H149        H  0.75640609  0.00881633  0.89599886     0.11400
H150        H  0.78863781  0.04888650  0.85025435     0.10200
C151        C  0.06755710  0.78679603  0.74202090    -0.03600
C152        C  0.04597413  0.77807325  0.76932504    -0.09300
C153        C  0.06925233  0.79677810  0.79520638    -0.17000
C154        C  0.11437638  0.82438160  0.79418822     0.25200
C155        C  0.13625178  0.83244036  0.76721908    -0.18600
C156        C  0.11304765  0.81374824  0.74130794    -0.07600
C157        C  0.13786501  0.84576497  0.82060791    -0.14000
C158        C  0.15647238  0.86456511  0.84280131    -0.13700
C159        C  0.17700110  0.88768479  0.86951472     0.25100
C160        C  0.20305042  0.93301709  0.86917480    -0.19100
C161        C  0.22061264  0.95576915  0.89541043    -0.07600
C162        C  0.21224281  0.93344783  0.92239677    -0.03700
C163        C  0.18690101  0.88780644  0.92242188    -0.09000
C164        C  0.16939138  0.86512514  0.89615412    -0.16600
H165        H  0.01098706  0.75760164  0.77061189     0.11500
H166        H  0.05193950  0.79035120  0.81593508     0.10800
H167        H  0.17114873  0.85381090  0.76613058     0.10700
H168        H  0.13060592  0.82123978  0.72063871     0.11300
H169        H  0.20910744  0.95086062  0.84871080     0.11300
H170        H  0.23990460  0.99088809  0.89464553     0.11300
H171        H  0.17980428  0.86967727  0.94281960     0.11400
H172        H  0.14922131  0.83005413  0.89671446     0.10200
C173        C  0.99899594  0.36118820  0.66630430    -0.03600
C174        C  0.96408820  0.36383087  0.65391516    -0.09300
C175        C  0.96442175  0.40336850  0.65348597    -0.17000
C176        C  0.99961974  0.44074878  0.66536519     0.25200
C177        C  0.03451767  0.43844526  0.67770029    -0.18600
C178        C  0.03422808  0.39893914  0.67819979    -0.07600
C179        C  0.99982692  0.48138674  0.66503986    -0.14000
C180        C  0.99984661  0.51534937  0.66494588    -0.13700
C181        C  0.99967169  0.55579844  0.66504010     0.25100
C182        C  0.03589813  0.59384768  0.65479103    -0.19100
C183        C  0.03577115  0.63315571  0.65494611    -0.07600
C184        C  0.99940839  0.63491701  0.66548995    -0.03700
C185        C  0.96315752  0.59651365  0.67576369    -0.09000
C186        C  0.96329454  0.55721241  0.67547847    -0.16600
H187        H  0.93651657  0.33536216  0.64458370     0.11500
H188        H  0.93721429  0.40477313  0.64389794     0.10800
H189        H  0.06193011  0.46716697  0.68695620     0.10700
H190        H  0.06162897  0.39798581  0.68783349     0.11300
H191        H  0.06425582  0.59314256  0.64668848     0.11300
H192        H  0.06419778  0.66218042  0.64695471     0.11300
H193        H  0.93464619  0.59680889  0.68394321     0.11400
H194        H  0.93506816  0.52795789  0.68344487     0.10200
C195        C  0.99979937  0.86178216  0.66755306    -0.03600
C196        C  0.03353180  0.89874235  0.65372886    -0.09300
C197        C  0.03387348  0.93823808  0.65419076    -0.17000
C198        C  0.00056201  0.94129566  0.66845080     0.25200
C199        C  0.96692495  0.90474733  0.68234464    -0.18600
C200        C  0.96651263  0.86519517  0.68191970    -0.07600
C201        C  0.00070638  0.98183088  0.66853554    -0.14000
C202        C  0.00078125  0.01577547  0.66824446    -0.13700
C203        C  0.00071643  0.05620088  0.66766184     0.25100
C204        C  0.96621559  0.05833794  0.65450016    -0.19100
C205        C  0.96599149  0.09756820  0.65403353    -0.07600
C206        C  0.00032396  0.13514466  0.66677856    -0.03700
C207        C  0.03495541  0.13271022  0.67984562    -0.09000
C208        C  0.03511661  0.09345633  0.68026468    -0.16600
H209        H  0.05963598  0.89714601  0.64252537     0.11500
H210        H  0.06004321  0.96634509  0.64336110     0.10800
H211        H  0.94096522  0.90679093  0.69343194     0.10700
H212        H  0.94013978  0.83731851  0.69278074     0.11300
H213        H  0.93945577  0.02967181  0.64465417     0.11300
H214        H  0.93889880  0.09843537  0.64380466     0.11300
H215        H  0.06187534  0.16109673  0.68980087     0.11400
H216        H  0.06201214  0.09214524  0.69047037     0.10200
C217        C  0.21001615  0.27678326  0.40923896    -0.03600
C218        C  0.21884128  0.26344421  0.43629493    -0.09300
C219        C  0.20091423  0.26836001  0.46246974    -0.17000
C220        C  0.17402864  0.28671990  0.46196896     0.25200
C221        C  0.16588581  0.30100051  0.43525424    -0.18600
C222        C  0.18378469  0.29613442  0.40905312    -0.07600
C223        C  0.15330276  0.28912408  0.48863379    -0.14000
C224        C  0.13471514  0.28916567  0.51088541    -0.13700
C225        C  0.11151700  0.28683589  0.53750063     0.25100
C226        C  0.06615380  0.26731868  0.53712025    -0.19100
C227        C  0.04329368  0.26246115  0.56327767    -0.07600
C228        C  0.06556609  0.27699770  0.59019933    -0.03700
C229        C  0.11123928  0.29753888  0.59025171    -0.09000
C230        C  0.13402574  0.30236458  0.56406325    -0.16600
H231        H  0.23880720  0.24833359  0.43716608     0.11500
H232        H  0.20736567  0.25710237  0.48300888     0.10800
H233        H  0.14504013  0.31516682  0.43459188     0.10700
H234        H  0.17627898  0.30661838  0.38858538     0.11300
H235        H  0.04838218  0.25510197  0.51669431     0.11300
H236        H  0.00814888  0.24641756  0.56251700     0.11300
H237        H  0.12931274  0.30898739  0.61062035     0.11400
H238        H  0.16912716  0.31745371  0.56462971     0.10200
C239        C  0.27610945  0.20956724  0.25655850    -0.03600
C240        C  0.26243884  0.21802995  0.22951434    -0.09300
C241        C  0.26732272  0.20001487  0.20337663    -0.17000
C242        C  0.28598872  0.17339654  0.20388397     0.25200
C243        C  0.30054998  0.16557623  0.23059507    -0.18600
C244        C  0.29570192  0.18355278  0.25676115    -0.07600
C245        C  0.28854567  0.15273456  0.17721759    -0.14000
C246        C  0.28879146  0.13434129  0.15491851    -0.13700
C247        C  0.28674781  0.11141746  0.12821624     0.25100
C248        C  0.26765178  0.06610788  0.12850965    -0.19100
C249        C  0.26310692  0.04349730  0.10230230    -0.07600
C250        C  0.27752373  0.06593569  0.07538490    -0.03700
C251        C  0.29760026  0.11156170  0.07540608    -0.09000
C252        C  0.30213527  0.13410918  0.10165474    -0.16600
H253        H  0.24712062  0.23780103  0.22862553     0.11500
H254        H  0.25584462  0.20623203  0.18285196     0.10800
H255        H  0.31496589  0.14495883  0.23128205     0.10700
H256        H  0.30645500  0.17632600  0.27721850     0.11300
H257        H  0.25553339  0.04816945  0.14891364     0.11300
H258        H  0.24740128  0.00838407  0.10302772     0.11300
H259        H  0.30894736  0.12977102  0.05505452     0.11400
H260        H  0.31690101  0.16916931  0.10113663     0.10200
C261        C  0.78554194  0.71923416  0.41024338    -0.03600
C262        C  0.77619543  0.73226116  0.43724988    -0.09300
C263        C  0.79402667  0.72749962  0.46350548    -0.17000
C264        C  0.82136366  0.70964072  0.46313133     0.25200
C265        C  0.83003490  0.69568998  0.43645565    -0.18600
C266        C  0.81221295  0.70037112  0.41018713    -0.07600
C267        C  0.84204778  0.70743848  0.48986560    -0.14000
C268        C  0.86075460  0.70752122  0.51207268    -0.13700
C269        C  0.88431137  0.70996831  0.53851796     0.25100
C270        C  0.92952733  0.72818629  0.53757307    -0.19100
C271        C  0.95282685  0.73304569  0.56348760    -0.07600
C272        C  0.93116960  0.71978189  0.59074726    -0.03700
C273        C  0.88560808  0.70060639  0.59138978    -0.09000
C274        C  0.86237767  0.69579324  0.56543994    -0.16600
H275        H  0.75587491  0.74698601  0.43802096     0.11500
H276        H  0.78715524  0.73850290  0.48400904     0.10800
H277        H  0.85123414  0.68192659  0.43587641     0.10700
H278        H  0.82015004  0.69015567  0.38976128     0.11300
H279        H  0.94687518  0.73935455  0.51687477     0.11300
H280        H  0.98786711  0.74802018  0.56225513     0.11300
H281        H  0.86799444  0.69018114  0.61202354     0.11400
H282        H  0.82739993  0.68172437  0.56645803     0.10200
C283        C  0.86139172  0.86132796  0.33386241    -0.03600
C284        C  0.89947483  0.86369230  0.32267878    -0.09300
C285        C  0.93866927  0.90316055  0.32258425    -0.17000
C286        C  0.94026229  0.94071545  0.33358133     0.25200
C287        C  0.90256186  0.93868673  0.34477690    -0.18600
C288        C  0.86333840  0.89922539  0.34496090    -0.07600
C289        C  0.98056688  0.98132091  0.33333405    -0.14000
C290        C  0.01441163  0.01528318  0.33312629    -0.13700
C291        C  0.05490809  0.05570095  0.33299620     0.25100
C292        C  0.05792748  0.09218760  0.31896133    -0.19100
C293        C  0.09728728  0.13152126  0.31891678    -0.07600
C294        C  0.13411134  0.13477265  0.33293488    -0.03700
C295        C  0.13075188  0.09789276  0.34695025    -0.09000
C296        C  0.09136933  0.05861515  0.34696658    -0.16600
H297        H  0.89900510  0.83505170  0.31403365     0.11500
H298        H  0.96769829  0.90439738  0.31389679     0.10800
H299        H  0.90347542  0.96760038  0.35333640     0.10700
H300        H  0.83454499  0.89842420  0.35367187     0.11300
H301        H  0.02986622  0.09024372  0.30807720     0.11300
H302        H  0.09887930  0.15934389  0.30792967     0.11300
H303        H  0.15853160  0.09937976  0.35791689     0.11400
H304        H  0.08935275  0.03053962  0.35788824     0.10200
C305        C  0.36146969  0.36076654  0.33268293    -0.03600
C306        C  0.36336584  0.39948661  0.32345958    -0.09300
C307        C  0.40291713  0.43867823  0.32341223    -0.17000
C308        C  0.44108231  0.43965789  0.33242845     0.25200
C309        C  0.43952429  0.40126562  0.34155909    -0.18600
C310        C  0.39997494  0.36207283  0.34176363    -0.07600
C311        C  0.48177138  0.48005456  0.33240138    -0.14000
C312        C  0.51575478  0.51398359  0.33246367    -0.13700
C313        C  0.55621003  0.55461291  0.33263885     0.25100
C314        C  0.59260170  0.55831496  0.31796620    -0.19100
C315        C  0.63189886  0.59776432  0.31815341    -0.07600
C316        C  0.63526794  0.63408274  0.33301250    -0.03700
C317        C  0.59850139  0.63005582  0.34767549    -0.09000
C318        C  0.55926288  0.59055825  0.34749232    -0.16600
H319        H  0.33425981  0.39953331  0.31642297     0.11500
H320        H  0.40372595  0.46820447  0.31633956     0.10800
H321        H  0.46886492  0.40162990  0.34856417     0.10700
H322        H  0.39957307  0.33278238  0.34889296     0.11300
H323        H  0.59061244  0.53071145  0.30638661     0.11300
H324        H  0.65959824  0.59983826  0.30663759     0.11300
H325        H  0.60006260  0.65739401  0.35933000     0.11400
H326        H  0.53130872  0.58806459  0.35893086     0.10200
C327        C  0.72109599  0.93107191  0.07612788    -0.03600
C328        C  0.73398768  0.95298979  0.10327427    -0.09300
C329        C  0.72979428  0.93009235  0.12928351    -0.17000
C330        C  0.71264943  0.88504458  0.12852390     0.25200
C331        C  0.69893099  0.86284181  0.10170855    -0.18600
C332        C  0.70304959  0.88566338  0.07566800    -0.07600
C333        C  0.71060485  0.86190998  0.15508151    -0.14000
C334        C  0.71055109  0.84334189  0.17734549    -0.13700
C335        C  0.71250698  0.82249069  0.20404692     0.25100
C336        C  0.73174612  0.79639764  0.20385442    -0.19100
C337        C  0.73596466  0.77816080  0.23007662    -0.07600
C338        C  0.72104332  0.78588659  0.25687603    -0.03700
C339        C  0.70088397  0.81137059  0.25674598    -0.09000
C340        C  0.69670394  0.82957441  0.23048950    -0.16600
H341        H  0.74814059  0.98793629  0.10434479     0.11500
H342        H  0.74059543  0.94762503  0.14991109     0.10800
H343        H  0.68570788  0.82798888  0.10085283     0.10700
H344        H  0.69302171  0.86788749  0.05510852     0.11300
H345        H  0.74417348  0.79076716  0.18352463     0.11300
H346        H  0.75175786  0.75881678  0.22945877     0.11300
H347        H  0.68920441  0.81803862  0.27702082     0.11400
H348        H  0.68183401  0.84979394  0.23090444     0.10200
loop_ 
_geom_bond_atom_site_label_1 
_geom_bond_atom_site_label_2 
_geom_bond_distance 
_geom_bond_site_symmetry_2 
_ccdc_geom_bond_type 
O1            V9   1.900       .  S
O1           C11   1.265       .  A
O2            V9   1.899       .  S
O2           C12   1.265       .  A
O3            V9   1.900       .  S
O3           C13   1.265       .  A
O4            V9   1.901       .  S
O4           C14   1.265       .  A
O5           V10   1.899       .  S
O5           C14   1.265       .  A
O6           V10   1.899       .  S
O6           C13   1.265       .  A
O7           V10   1.898       .  S
O7           C12   1.264       .  A
O8           V10   1.900       .  S
O8           C11   1.265       .  A
V9           V10   2.086       .  T
C11         C316   1.481       .  S
C12         C283   1.478       .  S
C13         C338   1.480       .  S
C14         C261   1.481       .  S
O15          V23   1.900       .  S
O15          C25   1.265       .  A
O16          V23   1.898       .  S
O16          C26   1.265       .  A
O17          V23   1.900       .  S
O17          C27   1.265       .  A
O18          V23   1.901       .  S
O18          C28   1.265       .  A
O19          V24   1.900       .  S
O19          C28   1.265       .  A
O20          V24   1.901       .  S
O20          C27   1.265       .  A
O21          V24   1.899       .  S
O21          C26   1.265       .  A
O22          V24   1.900       .  S
O22          C25   1.265       .  A
V23          V24   2.086       .  T
C25         C305   1.480       .  S
C26         C294   1.478       .  S
C27         C239   1.482       .  S
C28         C217   1.481       .  S
O29          V37   1.900       .  S
O29          C39   1.265   1_455  A
O30          V37   1.897       .  S
O30          C40   1.264   1_455  A
O31          V37   1.900       .  S
O31          C41   1.265       .  A
O32          V37   1.901   1_655  S
O32          C42   1.265       .  A
O33          V38   1.901       .  S
O33          C42   1.265       .  A
O34          V38   1.902   1_455  S
O34          C41   1.265       .  A
O35          V38   1.899       .  S
O35          C40   1.265       .  A
O36          V38   1.901       .  S
O36          C39   1.265       .  A
V37          V38   2.086   1_455  T
C39         C184   1.480       .  S
C40         C195   1.478       .  S
C41         C151   1.482       .  S
C42         C272   1.482       .  S
O43          V51   1.899       .  S
O43          C53   1.265   1_455  A
O44          V51   1.897       .  S
O44          C54   1.264   1_455  A
O45          V51   1.899       .  S
O45          C55   1.265       .  A
O46          V51   1.900   1_655  S
O46          C56   1.265       .  A
O47          V52   1.900       .  S
O47          C56   1.265       .  A
O48          V52   1.900   1_455  S
O48          C55   1.265       .  A
O49          V52   1.900       .  S
O49          C54   1.265       .  A
O50          V52   1.901       .  S
O50          C53   1.265       .  A
V51          V52   2.086   1_455  T
C53         C173   1.480       .  S
C54         C206   1.478   1_655  S
C55         C228   1.480       .  S
C56         C129   1.481       .  S
O57          V65   1.899       .  S
O57          C67   1.265   1_556  A
O58          V65   1.898       .  S
O58          C68   1.264       .  A
O59          V65   1.900   1_554  S
O59          C69   1.265       .  A
O60          V65   1.899       .  S
O60          C70   1.265   1_565  A
O61          V66   1.900   1_556  S
O61          C70   1.265       .  A
O62          V66   1.899   1_565  S
O62          C69   1.265       .  A
O63          V66   1.898       .  S
O63          C68   1.264   1_544  A
O64          V66   1.900       .  S
O64          C67   1.265   1_545  A
V65          V66   2.086   1_566  T
C67         C118   1.480       .  S
C68          C85   1.477       .  S
C69         C327   1.480       .  S
C70         C140   1.480       .  S
O71          V79   1.900       .  S
O71          C81   1.265   1_545  A
O72          V79   1.898       .  S
O72          C82   1.265   1_545  A
O73          V79   1.902   1_554  S
O73          C83   1.265       .  A
O74          V79   1.901   1_565  S
O74          C84   1.265       .  A
O75          V80   1.902   1_556  S
O75          C84   1.265       .  A
O76          V80   1.900   1_545  S
O76          C83   1.265       .  A
O77          V80   1.897       .  S
O77          C82   1.264   1_554  A
O78          V80   1.899       .  S
O78          C81   1.265   1_554  A
V79          V80   2.086   1_546  T
C81         C107   1.480       .  S
C82          C96   1.476       .  S
C83         C250   1.482       .  S
C84         C162   1.482       .  S
C85          C86   1.407   1_566  A
C85          C90   1.407       .  A
C86          C87   1.397       .  A
C86          H99   1.083       .  S
C87          C88   1.399   1_544  A
C87         H100   1.083       .  S
C88          C89   1.399       .  A
C88          C91   1.437       .  S
C89          C90   1.397       .  A
C89         H101   1.084       .  S
C90         H102   1.083       .  S
C91          C92   1.204   1_655  T
C92          C93   1.437       .  S
C93          C94   1.399   1_565  A
C93          C98   1.399   1_556  A
C94          C95   1.398       .  A
C94         H103   1.083       .  S
C95          C96   1.406   1_545  A
C95         H104   1.083       .  S
C96          C97   1.406   1_556  A
C97          C98   1.397       .  A
C97         H105   1.083       .  S
C98         H106   1.084       .  S
C107        C108   1.407   1_565  A
C107        C112   1.407   1_556  A
C108        C109   1.399       .  A
C108        H121   1.083       .  S
C109        C110   1.400   1_545  A
C109        H122   1.083       .  S
C110        C111   1.399   1_556  A
C110        C113   1.439       .  S
C111        C112   1.398       .  A
C111        H123   1.084       .  S
C112        H124   1.083       .  S
C113        C114   1.206       .  T
C114        C115   1.439       .  S
C115        C116   1.400   1_566  A
C115        C120   1.400       .  A
C116        C117   1.398       .  A
C116        H125   1.084       .  S
C117        C118   1.407   1_545  A
C117        H126   1.083       .  S
C118        C119   1.407   1_554  A
C119        C120   1.398       .  A
C119        H127   1.083       .  S
C120        H128   1.083       .  S
C129        C130   1.407       .  A
C129        C134   1.407       .  A
C130        C131   1.399       .  A
C130        H143   1.083       .  S
C131        C132   1.400       .  A
C131        H144   1.083       .  S
C132        C133   1.400       .  A
C132        C135   1.440       .  S
C133        C134   1.399       .  A
C133        H145   1.084       .  S
C134        H146   1.083       .  S
C135        C136   1.206       .  T
C136        C137   1.440       .  S
C137        C138   1.400       .  A
C137        C142   1.400       .  A
C138        C139   1.399       .  A
C138        H147   1.083       .  S
C139        C140   1.407       .  A
C139        H148   1.083       .  S
C140        C141   1.407       .  A
C141        C142   1.398       .  A
C141        H149   1.083       .  S
C142        H150   1.084       .  S
C151        C152   1.407       .  A
C151        C156   1.408       .  A
C152        C153   1.399       .  A
C152        H165   1.083       .  S
C153        C154   1.400       .  A
C153        H166   1.083       .  S
C154        C155   1.400       .  A
C154        C157   1.442       .  S
C155        C156   1.400       .  A
C155        H167   1.084       .  S
C156        H168   1.083       .  S
C157        C158   1.208       .  T
C158        C159   1.442       .  S
C159        C160   1.400       .  A
C159        C164   1.400       .  A
C160        C161   1.400       .  A
C160        H169   1.083       .  S
C161        C162   1.407       .  A
C161        H170   1.083       .  S
C162        C163   1.407       .  A
C163        C164   1.400       .  A
C163        H171   1.083       .  S
C164        H172   1.084       .  S
C173        C174   1.407       .  A
C173        C178   1.407   1_655  A
C174        C175   1.399       .  A
C174        H187   1.083       .  S
C175        C176   1.400       .  A
C175        H188   1.084       .  S
C176        C177   1.400   1_655  A
C176        C179   1.440       .  S
C177        C178   1.399       .  A
C177        H189   1.083       .  S
C178        H190   1.083       .  S
C179        C180   1.206       .  T
C180        C181   1.440       .  S
C181        C182   1.400   1_655  A
C181        C186   1.400       .  A
C182        C183   1.399       .  A
C182        H191   1.084       .  S
C183        C184   1.407   1_455  A
C183        H192   1.083       .  S
C184        C185   1.407       .  A
C185        C186   1.399       .  A
C185        H193   1.083       .  S
C186        H194   1.083       .  S
C195        C196   1.407   1_655  A
C195        C200   1.407       .  A
C196        C197   1.397       .  A
C196        H209   1.083       .  S
C197        C198   1.399       .  A
C197        H210   1.083       .  S
C198        C199   1.399   1_455  A
C198        C201   1.438       .  S
C199        C200   1.398       .  A
C199        H211   1.084       .  S
C200        H212   1.083       .  S
C201        C202   1.205   1_565  T
C202        C203   1.438       .  S
C203        C204   1.399   1_455  A
C203        C208   1.399       .  A
C204        C205   1.398       .  A
C204        H213   1.083       .  S
C205        C206   1.407   1_655  A
C205        H214   1.083       .  S
C206        C207   1.407       .  A
C207        C208   1.398       .  A
C207        H215   1.083       .  S
C208        H216   1.084       .  S
C217        C218   1.407       .  A
C217        C222   1.407       .  A
C218        C219   1.399       .  A
C218        H231   1.083       .  S
C219        C220   1.400       .  A
C219        H232   1.083       .  S
C220        C221   1.399       .  A
C220        C223   1.440       .  S
C221        C222   1.399       .  A
C221        H233   1.084       .  S
C222        H234   1.083       .  S
C223        C224   1.206       .  T
C224        C225   1.440       .  S
C225        C226   1.400       .  A
C225        C230   1.399       .  A
C226        C227   1.399       .  A
C226        H235   1.083       .  S
C227        C228   1.407       .  A
C227        H236   1.083       .  S
C228        C229   1.407       .  A
C229        C230   1.399       .  A
C229        H237   1.083       .  S
C230        H238   1.084       .  S
C239        C240   1.407       .  A
C239        C244   1.407       .  A
C240        C241   1.399       .  A
C240        H253   1.083       .  S
C241        C242   1.400       .  A
C241        H254   1.083       .  S
C242        C243   1.400       .  A
C242        C245   1.442       .  S
C243        C244   1.399       .  A
C243        H255   1.084       .  S
C244        H256   1.083       .  S
C245        C246   1.207       .  T
C246        C247   1.442       .  S
C247        C248   1.400       .  A
C247        C252   1.400       .  A
C248        C249   1.399       .  A
C248        H257   1.083       .  S
C249        C250   1.407       .  A
C249        H258   1.083       .  S
C250        C251   1.407       .  A
C251        C252   1.400       .  A
C251        H259   1.083       .  S
C252        H260   1.084       .  S
C261        C262   1.407       .  A
C261        C266   1.407       .  A
C262        C263   1.399       .  A
C262        H275   1.083       .  S
C263        C264   1.400       .  A
C263        H276   1.083       .  S
C264        C265   1.400       .  A
C264        C267   1.441       .  S
C265        C266   1.399       .  A
C265        H277   1.084       .  S
C266        H278   1.083       .  S
C267        C268   1.207       .  T
C268        C269   1.441       .  S
C269        C270   1.400       .  A
C269        C274   1.400       .  A
C270        C271   1.399       .  A
C270        H279   1.083       .  S
C271        C272   1.407       .  A
C271        H280   1.083       .  S
C272        C273   1.407       .  A
C273        C274   1.399       .  A
C273        H281   1.083       .  S
C274        H282   1.084       .  S
C283        C284   1.407       .  A
C283        C288   1.407       .  A
C284        C285   1.397       .  A
C284        H297   1.083       .  S
C285        C286   1.399       .  A
C285        H298   1.084       .  S
C286        C287   1.399       .  A
C286        C289   1.437       .  S
C287        C288   1.398       .  A
C287        H299   1.084       .  S
C288        H300   1.083       .  S
C289        C290   1.205   1_665  T
C290        C291   1.437       .  S
C291        C292   1.399       .  A
C291        C296   1.399       .  A
C292        C293   1.398       .  A
C292        H301   1.084       .  S
C293        C294   1.407       .  A
C293        H302   1.083       .  S
C294        C295   1.407       .  A
C295        C296   1.397       .  A
C295        H303   1.083       .  S
C296        H304   1.084       .  S
C305        C306   1.407       .  A
C305        C310   1.407       .  A
C306        C307   1.399       .  A
C306        H319   1.083       .  S
C307        C308   1.400       .  A
C307        H320   1.083       .  S
C308        C309   1.400       .  A
C308        C311   1.440       .  S
C309        C310   1.399       .  A
C309        H321   1.084       .  S
C310        H322   1.083       .  S
C311        C312   1.206       .  T
C312        C313   1.440       .  S
C313        C314   1.400       .  A
C313        C318   1.400       .  A
C314        C315   1.399       .  A
C314        H323   1.084       .  S
C315        C316   1.407       .  A
C315        H324   1.083       .  S
C316        C317   1.407       .  A
C317        C318   1.399       .  A
C317        H325   1.083       .  S
C318        H326   1.083       .  S
C327        C328   1.407       .  A
C327        C332   1.407       .  A
C328        C329   1.398       .  A
C328        H341   1.083       .  S
C329        C330   1.400       .  A
C329        H342   1.084       .  S
C330        C331   1.400       .  A
C330        C333   1.440       .  S
C331        C332   1.399       .  A
C331        H343   1.084       .  S
C332        H344   1.083       .  S
C333        C334   1.206       .  T
C334        C335   1.440       .  S
C335        C336   1.400       .  A
C335        C340   1.400       .  A
C336        C337   1.399       .  A
C336        H345   1.083       .  S
C337        C338   1.407       .  A
C337        H346   1.083       .  S
C338        C339   1.407       .  A
C339        C340   1.399       .  A
C339        H347   1.083       .  S
C340        H348   1.084       .  S
