geometry optimzed in LAMMPS
_audit_creation_date              2020-12-01 
_audit_creation_method            'lammps2cif' 
_symmetry_space_group_name_H-M    'P1' 
_symmetry_Int_Tables_number       1 
_symmetry_cell_setting            triclinic 
loop_ 
_symmetry_equiv_pos_as_xyz 
  x,y,z 
_cell_length_a                    26.02308007 
_cell_length_b                    26.031036343971902 
_cell_length_c                    26.00660246098706 
_cell_angle_alpha                 89.72857928710295 
_cell_angle_beta                  90.16411029734921 
_cell_angle_gamma                 91.07204417889804 
loop_ 
_atom_site_label 
_atom_site_type_symbol 
_atom_site_fract_x 
_atom_site_fract_y 
_atom_site_fract_z 
_atom_site_charge 
N1          N  0.94649589  0.05084295  0.50263208    -0.36400
N2          N  0.94454485  0.93833387  0.50584829    -0.57000
N3          N  0.05630665  0.93933962  0.49741666    -0.36400
N4          N  0.05825930  0.05182813  0.49988293    -0.57000
C5          C  0.89612893  0.04163297  0.51285811     0.27200
C6          C  0.95612494  0.10158837  0.51049773     0.27200
C7          C  0.04723531  0.88888457  0.50755136     0.27200
C8          C  0.10720607  0.94853407  0.50460045     0.27200
C9          C  0.89355666  0.94626690  0.50054003     0.35800
C10         C  0.95160387  0.88745151  0.49883538     0.35800
C11         C  0.05099594  0.10295388  0.49456275     0.35800
C12         C  0.10888400  0.04395508  0.49203587     0.35800
C13         C  0.87333538  0.08713828  0.52697975    -0.21700
C14         C  0.91100474  0.12488114  0.52536957    -0.21700
C15         C  0.09304519  0.86568291  0.52061491    -0.21700
C16         C  0.13081011  0.90323682  0.51873712    -0.21700
C17         C  0.86804849  0.90004128  0.49091905    -0.22800
C18         C  0.90479368  0.86282454  0.48984632    -0.22700
C19         C  0.09750323  0.12770771  0.48420393    -0.22800
C20         C  0.13402271  0.09038109  0.48229800    -0.22700
C21         C  0.86923953  0.99413412  0.50662654    -0.18100
C22         C  0.00360387  0.12806972  0.50167363    -0.18100
C23         C  0.13355955  0.99609501  0.49702046    -0.18100
C24         C  0.99933118  0.86244048  0.50305885    -0.18100
H25         H  0.83343650  0.09278735  0.53673148     0.14800
H26         H  0.90531680  0.16507896  0.53351402     0.14800
H27         H  0.09876685  0.82573600  0.53042270     0.14800
H28         H  0.17114915  0.89772492  0.52688874     0.14800
H29         H  0.82716074  0.89370133  0.48557984     0.13100
H30         H  0.89780510  0.82222432  0.48350558     0.13100
H31         H  0.10461770  0.16849114  0.47905360     0.13100
H32         H  0.17463580  0.09683865  0.47541141     0.13100
H33         H  0.97113716  0.02527576  0.48552591     0.26400
H34         H  0.03045024  0.96464332  0.48130475     0.26400
Zn35       Zn  0.95861070  0.45088755  0.54433574     1.49700
Zn36       Zn  0.04387977  0.53931126  0.54802082     1.49400
Zn37       Zn  0.04285082  0.45265850  0.45654482     1.49100
Zn38       Zn  0.96219506  0.54157637  0.45779130     1.49500
O39         O  0.00208661  0.49604708  0.50179811    -1.83900
O40         O  0.96802546  0.46433360  0.62061211    -0.74600
O41         O  0.11800420  0.52387350  0.53587202    -0.74400
O42         O  0.02970180  0.37631343  0.46912234    -0.73900
O43         O  0.02805979  0.52539686  0.62302387    -0.74600
O44         O  0.97231148  0.37537503  0.53201065    -0.74200
O45         O  0.11667641  0.46723564  0.47158846    -0.74800
O46         O  0.97351306  0.52894173  0.38250619    -0.74100
O47         O  0.03306257  0.61586773  0.53569552    -0.74900
O48         O  0.03104039  0.46759884  0.38065228    -0.74300
O49         O  0.97836552  0.61644146  0.47003120    -0.74800
O50         O  0.88780917  0.53006755  0.47205968    -0.74700
O51         O  0.88515540  0.46485788  0.52786445    -0.74500
C52         C  0.99691224  0.49488738  0.64615300     0.77300
C53         C  0.14081032  0.49544067  0.50375091     0.77800
C54         C  0.00141946  0.35171768  0.50112690     0.76800
C55         C  0.00222707  0.49924974  0.35732592     0.77200
C56         C  0.00631583  0.64008323  0.50273226     0.78300
C57         C  0.86289229  0.49817507  0.50004130     0.77300
Zn58       Zn  0.45782769  0.95842758  0.44884017     1.49700
Zn59       Zn  0.45620774  0.03808153  0.54008335     1.49400
Zn60       Zn  0.54415336  0.95572184  0.54064044     1.49100
Zn61       Zn  0.54782087  0.04098315  0.45382728     1.49500
O62         O  0.50153308  0.99833961  0.49595681    -1.83900
O63         O  0.38188983  0.96768783  0.46182445    -0.74600
O64         O  0.46838343  0.02474867  0.61604530    -0.74400
O65         O  0.52829463  0.88227948  0.52416974    -0.73900
O66         O  0.38077838  0.02392498  0.52524257    -0.74600
O67         O  0.47284471  0.88448236  0.45891899    -0.74200
O68         O  0.53115254  0.96825692  0.61638202    -0.74800
O69         O  0.62292375  0.02812431  0.46906534    -0.74100
O70         O  0.47087986  0.11255683  0.52736222    -0.74900
O71         O  0.62059819  0.96769762  0.52923306    -0.74300
O72         O  0.53384353  0.11406738  0.46953979    -0.74800
O73         O  0.53689529  0.03100131  0.37706910    -0.74700
O74         O  0.47105448  0.97584925  0.37403658    -0.74500
C75         C  0.35705974  0.99520201  0.49310089     0.77300
C76         C  0.49981520  0.99652454  0.64028861     0.77800
C77         C  0.50046101  0.85967690  0.49045230     0.76800
C78         C  0.64594937  0.99762636  0.49939539     0.77200
C79         C  0.50295630  0.13698367  0.49905745     0.78300
C80         C  0.50403814  0.00470203  0.35146049     0.77300
N81         N  0.51444524  0.94952762  0.05278495    -0.36400
N82         N  0.50719379  0.06147413  0.05101440    -0.57000
N83         N  0.51053945  0.06020493  0.93875444    -0.36400
N84         N  0.51269285  0.94816915  0.94056943    -0.57000
C85         C  0.50486005  0.95859925  0.10309224     0.27200
C86         C  0.50649588  0.89859081  0.04461727     0.27200
C87         C  0.49946571  0.11019539  0.94675828     0.27200
C88         C  0.50210945  0.05026021  0.88828415     0.27200
C89         C  0.51421361  0.05443881  0.10213952     0.35800
C90         C  0.51165660  0.11264974  0.04218575     0.35800
C91         C  0.51942200  0.89745533  0.94931557     0.35800
C92         C  0.51793569  0.95566103  0.88932118     0.35800
C93         C  0.49172631  0.91266257  0.12737824    -0.21700
C94         C  0.49264956  0.87491175  0.09054332    -0.21700
C95         C  0.48462385  0.13246638  0.90063765    -0.21700
C96         C  0.48651515  0.09481978  0.86379027    -0.21700
C97         C  0.52249155  0.10142265  0.12593656    -0.22800
C98         C  0.52104167  0.13821439  0.08800771    -0.22700
C99         C  0.52865509  0.87256848  0.90335229    -0.22800
C100        C  0.52765540  0.90934651  0.86541190    -0.22700
C101        C  0.51001738  0.00667864  0.12828581    -0.18100
C102        C  0.51314382  0.87241394  0.99740539    -0.18100
C103        C  0.51014478  0.00278094  0.86316061    -0.18100
C104        C  0.50479071  0.13708796  0.99388981    -0.18100
H105        H  0.48258049  0.90677733  0.16756740     0.14800
H106        H  0.48427809  0.83451394  0.09699650     0.14800
H107        H  0.47392673  0.17193973  0.89404526     0.14800
H108        H  0.47757558  0.09992165  0.82345132     0.14800
H109        H  0.52852643  0.10855997  0.16649001     0.13100
H110        H  0.52594901  0.17918214  0.09365175     0.13100
H111        H  0.53442712  0.83193700  0.89756343     0.13100
H112        H  0.53250168  0.90247669  0.82472328     0.13100
H113        H  0.53046179  0.97556096  0.02695274     0.26400
H114        H  0.52789546  0.03593265  0.96490815     0.26400
N115        N  0.94052579  0.50123425  0.05837064    -0.36400
N116        N  0.93855033  0.50061380  0.94672481    -0.57000
N117        N  0.05052702  0.50850510  0.94572544    -0.36400
N118        N  0.05240890  0.50458962  0.05719002    -0.57000
C119        C  0.89029471  0.48963148  0.04982096     0.27200
C120        C  0.95072050  0.49032602  0.10827589     0.27200
C121        C  0.04049693  0.49597451  0.89619208     0.27200
C122        C  0.10081264  0.49908384  0.95459519     0.27200
C123        C  0.88799708  0.50770849  0.95569502     0.35800
C124        C  0.94615779  0.50998889  0.89608985     0.35800
C125        C  0.04459498  0.51141579  0.10802141     0.35800
C126        C  0.10257653  0.51580546  0.04852281     0.35800
C127        C  0.86815141  0.47147285  0.09498487    -0.21700
C128        C  0.90632059  0.47175592  0.13182826    -0.21700
C129        C  0.08497695  0.47854488  0.87333231    -0.21700
C130        C  0.12306746  0.48069890  0.91013401    -0.21700
C131        C  0.86330422  0.52122467  0.91044316    -0.22800
C132        C  0.90017489  0.52279033  0.87271185    -0.22700
C133        C  0.09005008  0.52686093  0.13177607    -0.22800
C134        C  0.12680498  0.52963763  0.09404362    -0.22700
C135        C  0.86326254  0.49873058  0.00339445    -0.18100
C136        C  0.99800850  0.50014418  0.13390568    -0.18100
C137        C  0.12766407  0.50916307  0.00099498    -0.18100
C138        C  0.99329549  0.50343968  0.87010903    -0.18100
H139        H  0.82845204  0.45991252  0.10101057     0.14800
H140        H  0.90167114  0.46043999  0.17167214     0.14800
H141        H  0.08970122  0.46625360  0.83395696     0.14800
H142        H  0.16273283  0.47024778  0.90466442     0.14800
H143        H  0.82284640  0.52857951  0.90502389     0.13100
H144        H  0.89372620  0.53169808  0.83254483     0.13100
H145        H  0.09628900  0.53447061  0.17221691     0.13100
H146        H  0.16696336  0.53973483  0.09963081     0.13100
H147        H  0.96468104  0.52130865  0.03339074     0.26400
H148        H  0.02610788  0.52796511  0.97013337     0.26400
Zn149      Zn  0.54187374  0.54769298  0.04181526     1.49700
Zn150      Zn  0.53930467  0.46189909  0.95637622     1.49400
Zn151      Zn  0.45155135  0.45888163  0.03946263     1.49100
Zn152      Zn  0.45213776  0.55089913  0.95878502     1.49500
O153        O  0.49614966  0.50499677  0.99911423    -1.83900
O154        O  0.61714468  0.53215308  0.03099707    -0.74600
O155        O  0.52421599  0.38589190  0.96581157    -0.74400
O156        O  0.46726935  0.46918751  0.11364860    -0.73900
O157        O  0.61525779  0.47216314  0.97084818    -0.74600
O158        O  0.52590159  0.53285427  0.11563105    -0.74200
O159        O  0.46313903  0.38354736  0.02463167    -0.74800
O160        O  0.37587614  0.53836129  0.97286505    -0.74100
O161        O  0.52595036  0.47978895  0.88327376    -0.74900
O162        O  0.37604150  0.47350062  0.02810823    -0.74300
O163        O  0.46452078  0.53817641  0.88400000    -0.74800
O164        O  0.46948934  0.62628585  0.97147014    -0.74700
O165        O  0.53340743  0.62377384  0.02792965    -0.74500
C166        C  0.64024678  0.50097538  0.00183707     0.77300
C167        C  0.49333722  0.36041921  0.99452225     0.77800
C168        C  0.49686270  0.49990601  0.13811646     0.76800
C169        C  0.35160636  0.50575213  0.00091185     0.77200
C170        C  0.49549968  0.50975500  0.85991177     0.78300
C171        C  0.50334774  0.64912410  0.99906928     0.77300
Zn172      Zn  0.46043096  0.45488939  0.54411206     1.49700
Zn173      Zn  0.54399535  0.45543911  0.45582069     1.49400
Zn174      Zn  0.45733000  0.53896679  0.45651704     1.49100
Zn175      Zn  0.54545584  0.54333648  0.54036156     1.49500
O176        O  0.50196977  0.49810944  0.49919667    -1.83900
O177        O  0.47326769  0.38097972  0.53270365    -0.74600
O178        O  0.53053861  0.46813318  0.38114573    -0.74400
O179        O  0.38368134  0.52609229  0.47303422    -0.73900
O180        O  0.53009131  0.38131898  0.46925813    -0.74600
O181        O  0.38573939  0.46537851  0.53305215    -0.74200
O182        O  0.46689292  0.52365454  0.38277766    -0.74800
O183        O  0.53522478  0.61627732  0.52179838    -0.74100
O184        O  0.61838184  0.46818669  0.46955281    -0.74900
O185        O  0.47256129  0.61367991  0.46416919    -0.74300
O186        O  0.61967778  0.52879932  0.52951316    -0.74800
O187        O  0.53001979  0.53628217  0.61526453    -0.74700
O188        O  0.47447720  0.47033884  0.61734804    -0.74500
C189        C  0.50120044  0.35744217  0.50097449     0.77300
C190        C  0.49817772  0.49624918  0.35823963     0.77800
C191        C  0.36096330  0.49549099  0.50405911     0.76800
C192        C  0.50506641  0.63880863  0.49109452     0.77200
C193        C  0.64265636  0.49794359  0.50005700     0.78300
C194        C  0.50182882  0.50432992  0.63982397     0.77300
C195        C  0.51008191  0.46476025  0.77837369    -0.09000
C196        C  0.49604412  0.51007739  0.80338244     0.07200
C197        C  0.48438879  0.55408303  0.77378717    -0.02700
C198        C  0.48732302  0.55181250  0.72022137    -0.07200
C199        C  0.50086446  0.50622877  0.69577806     0.06400
C200        C  0.51236054  0.46251362  0.72506225    -0.02200
Br201      Br  0.53396509  0.39964463  0.69417005    -0.01900
H202        H  0.51925203  0.43067023  0.80037604     0.10300
H203        H  0.47851157  0.58555165  0.69750968     0.08300
Br204      Br  0.46662780  0.61885389  0.80346518    -0.02300
C205        C  0.49089260  0.54373856  0.22117189    -0.09000
C206        C  0.49698221  0.49792090  0.19419793     0.07200
C207        C  0.50322571  0.45143008  0.22118667    -0.02700
C208        C  0.50386031  0.45165194  0.27482469    -0.07200
C209        C  0.49712201  0.49748718  0.30193556     0.06400
C210        C  0.49025278  0.54387288  0.27468241    -0.02200
Br211      Br  0.48236761  0.60908350  0.30783346    -0.01900
H212        H  0.48611519  0.57956317  0.20044323     0.10300
H213        H  0.50922898  0.41586261  0.29543132     0.08300
Br214      Br  0.51357748  0.38728317  0.18682576    -0.02300
C215        C  0.72568717  0.54480730  0.01108860    -0.09000
C216        C  0.69724405  0.49899284  0.00357293     0.07200
C217        C  0.72399933  0.45253216  0.99796059    -0.02700
C218        C  0.77792505  0.45300172  0.99824623    -0.07200
C219        C  0.80602820  0.49902202  0.00474221     0.06400
C220        C  0.77950305  0.54506298  0.01166686    -0.02200
Br221      Br  0.81551774  0.60922252  0.02145827    -0.01900
H222        H  0.70599436  0.58078369  0.01577657     0.10300
H223        H  0.79809364  0.41728258  0.99370412     0.08300
Br224      Br  0.68928982  0.38691489  0.99337064    -0.02300
C225        C  0.26813006  0.54864211  0.98179151    -0.09000
C226        C  0.29403944  0.50572700  0.00171625     0.07200
C227        C  0.26393504  0.46404876  0.02142472    -0.02700
C228        C  0.21019063  0.46609830  0.02061807    -0.07200
C229        C  0.18494317  0.50881497  0.00064551     0.06400
C230        C  0.21427956  0.55045415  0.98132457    -0.02200
Br231      Br  0.18217530  0.61104802  0.95528710    -0.01900
H232        H  0.28976692  0.58133210  0.96682697     0.10300
H233        H  0.18773010  0.43391682  0.03556820     0.08300
Br234      Br  0.29216850  0.40200403  0.04876472    -0.02300
C235        C  0.46222725  0.73458154  0.99036642    -0.09000
C236        C  0.50714643  0.70625241  0.99797487     0.07200
C237        C  0.55448956  0.73330232  0.00408702    -0.02700
C238        C  0.55566960  0.78721677  0.00446195    -0.07200
C239        C  0.51055092  0.81512103  0.99786883     0.06400
C240        C  0.46369234  0.78840332  0.99015002    -0.02200
Br241      Br  0.40085134  0.82417038  0.97899272    -0.01900
H242        H  0.42561597  0.71480230  0.98505082     0.10300
H243        H  0.59208604  0.80755287  0.00904672     0.08300
Br244      Br  0.61930932  0.69930608  0.00782625    -0.02300
C245        C  0.45768306  0.21781067  0.01239158    -0.09000
C246        C  0.50148435  0.19430679  0.99281544     0.07200
C247        C  0.54160553  0.22535871  0.97293639    -0.02700
C248        C  0.53773124  0.27894296  0.97335812    -0.07200
C249        C  0.49416185  0.30303080  0.99354116     0.06400
C250        C  0.45355268  0.27144901  0.01289731    -0.02200
Br251      Br  0.39041321  0.29790425  0.03888429    -0.01900
H252        H  0.42641783  0.19412043  0.02733426     0.10300
H253        H  0.56957154  0.30185464  0.95847555     0.08300
Br254      Br  0.60305203  0.19620994  0.94600131    -0.02300
C255        C  0.54550689  0.77853511  0.50558231    -0.09000
C256        C  0.50147305  0.80327793  0.48759546     0.07200
C257        C  0.46024315  0.77351354  0.46745252    -0.02700
C258        C  0.46300377  0.72012700  0.46803736    -0.07200
C259        C  0.50634809  0.69531354  0.48772839     0.06400
C260        C  0.54869463  0.72523682  0.50520368    -0.02200
Br261      Br  0.61317961  0.69706501  0.52668295    -0.01900
H262        H  0.57820595  0.80085782  0.51949509     0.10300
H263        H  0.43029455  0.69790505  0.45401997     0.08300
Br264      Br  0.39786738  0.80205386  0.44080201    -0.02300
C265        C  0.45757590  0.21854496  0.51059446    -0.09000
C266        C  0.50359190  0.19339333  0.50006844     0.07200
C267        C  0.54872433  0.22273775  0.49028881    -0.02700
C268        C  0.54682397  0.27614520  0.49073051    -0.07200
C269        C  0.50081550  0.30117762  0.50110731     0.06400
C270        C  0.45571738  0.27198694  0.51091539    -0.02200
Br271      Br  0.38975488  0.30234421  0.52117380    -0.01900
H272        H  0.42248281  0.19653771  0.51744247     0.10300
H273        H  0.58179697  0.29829850  0.48366863     0.08300
Br274      Br  0.61482052  0.19307418  0.47881886    -0.02300
C275        C  0.54932307  0.99931635  0.72228225    -0.09000
C276        C  0.50132768  0.99768076  0.69731267     0.07200
C277        C  0.45620556  0.99790829  0.72739512    -0.02700
C278        C  0.45979720  0.99953657  0.78116795    -0.07200
C279        C  0.50778760  0.00179822  0.80586529     0.06400
C280        C  0.55279024  0.00191925  0.77597441    -0.02200
Br281      Br  0.61967651  0.00598911  0.80703405    -0.01900
H282        H  0.58435665  0.99953562  0.69986450     0.10300
H283        H  0.42498819  0.99894108  0.80393320     0.08300
Br284      Br  0.38876278  0.99313722  0.69752476    -0.02300
C285        C  0.55231382  0.00809702  0.26867857    -0.09000
C286        C  0.50483239  0.00698735  0.29438296     0.07200
C287        C  0.45914248  0.00736421  0.26486047    -0.02700
C288        C  0.46156725  0.00741816  0.21104501    -0.07200
C289        C  0.50896487  0.00715229  0.18560978     0.06400
C290        C  0.55459899  0.00792968  0.21481270    -0.02200
Br291      Br  0.62071424  0.00857054  0.18244831    -0.01900
H292        H  0.58780808  0.00809350  0.29055566     0.10300
H293        H  0.42629446  0.00781975  0.18882596     0.08300
Br294      Br  0.39245072  0.01137580  0.29556430    -0.02300
C295        C  0.77931611  0.45225621  0.50123385    -0.09000
C296        C  0.80663233  0.49917266  0.49996532     0.07200
C297        C  0.77964158  0.54567754  0.49947884    -0.02700
C298        C  0.72606181  0.54434804  0.50036095    -0.07200
C299        C  0.69884910  0.49737979  0.50066024     0.06400
C300        C  0.72579207  0.45097175  0.50113503    -0.02200
Br301      Br  0.69184886  0.38486793  0.50434041    -0.01900
H302        H  0.79972529  0.41634494  0.50188246     0.10300
H303        H  0.70550382  0.58018057  0.50015702     0.08300
Br304      Br  0.81333142  0.61203272  0.50012131    -0.02300
C305        C  0.22312671  0.48726091  0.54999174    -0.09000
C306        C  0.19689183  0.49517367  0.50361809     0.07200
C307        C  0.22461075  0.50274300  0.45779292    -0.02700
C308        C  0.27806824  0.50284088  0.45904363    -0.07200
C309        C  0.30460591  0.49451471  0.50527939     0.06400
C310        C  0.27671106  0.48624054  0.55116755    -0.02200
Br311      Br  0.30902970  0.47582441  0.61685132    -0.01900
H312        H  0.20179467  0.48140290  0.58533350     0.10300
H313        H  0.29901434  0.50915317  0.42354526     0.08300
Br314      Br  0.19160477  0.51575831  0.39297566    -0.02300
C315        C  0.01950297  0.53674261  0.72968696    -0.09000
C316        C  0.99436532  0.49602802  0.70362835     0.07200
C317        C  0.96777813  0.45825185  0.73345774    -0.02700
C318        C  0.96760924  0.46169175  0.78725921    -0.07200
C319        C  0.99309190  0.50215926  0.81270833     0.06400
C320        C  0.01888531  0.54011503  0.78337297    -0.02200
Br321      Br  0.05306253  0.59795180  0.81486433    -0.01900
H322        H  0.03966778  0.56661966  0.70827006     0.10300
H323        H  0.94777948  0.43223175  0.80958592     0.08300
Br324      Br  0.93180453  0.39995006  0.70473127    -0.02300
C325        C  0.01977026  0.45836824  0.27256160    -0.09000
C326        C  0.00155041  0.50083060  0.29999677     0.07200
C327        C  0.98283086  0.54337533  0.27170970    -0.02700
C328        C  0.98112199  0.54177206  0.21793278    -0.07200
C329        C  0.99875390  0.49913896  0.19109994     0.06400
C330        C  0.01873304  0.45741593  0.21873007    -0.02200
Br331      Br  0.04491841  0.39838784  0.18437913    -0.03100
H332        H  0.03461693  0.42543861  0.29298458     0.10300
H333        H  0.96686271  0.57450824  0.19672328     0.08300
Br334      Br  0.96200537  0.60649247  0.30277149    -0.02300
C335        C  0.21607659  0.97848461  0.45221173    -0.09000
C336        C  0.19080462  0.99572051  0.49618530     0.07200
C337        C  0.22001886  0.01109010  0.53914444    -0.02700
C338        C  0.27373513  0.01062221  0.53712176    -0.07200
C339        C  0.29967510  0.99394239  0.49292404     0.06400
C340        C  0.26986680  0.97707039  0.45020801    -0.02200
Br341      Br  0.29891487  0.95267466  0.38729669    -0.01900
H342        H  0.19368294  0.96599767  0.41921837     0.10300
H343        H  0.29527269  0.02281551  0.57075783     0.08300
Br344      Br  0.18791891  0.03140412  0.60194286    -0.02300
C345        C  0.78697407  0.00640980  0.45918566    -0.09000
C346        C  0.81195770  0.99493925  0.50551294     0.07200
C347        C  0.78238496  0.98460247  0.54969390    -0.02700
C348        C  0.72856118  0.98534838  0.54687964    -0.07200
C349        C  0.70317888  0.99702480  0.50047473     0.06400
C350        C  0.73322933  0.00753789  0.45622081    -0.02200
Br351      Br  0.70374998  0.02069939  0.38975838    -0.01900
H352        H  0.80953590  0.01414213  0.42496905     0.10300
H353        H  0.70648464  0.97745986  0.58136847     0.08300
Br354      Br  0.81418342  0.97043666  0.61472022    -0.02300
C355        C  0.01679308  0.77935914  0.45932432    -0.09000
C356        C  0.99976918  0.80511604  0.50322195     0.07200
C357        C  0.98615708  0.77627940  0.54728733    -0.02700
C358        C  0.99003760  0.72262967  0.54701889    -0.07200
C359        C  0.00640471  0.69684789  0.50288822     0.06400
C360        C  0.01978761  0.72567416  0.45873151    -0.02200
Br361      Br  0.04452691  0.69360415  0.39755013    -0.01900
H362        H  0.02799115  0.80120609  0.42547657     0.10300
H363        H  0.97916316  0.70086413  0.58102513     0.08300
Br364      Br  0.96228107  0.80861150  0.60861036    -0.02300
C365        C  0.00013409  0.21229063  0.54769995    -0.09000
C366        C  0.00379305  0.18555764  0.50117561     0.07200
C367        C  0.00744519  0.21374753  0.45488332    -0.02700
C368        C  0.00725801  0.26763123  0.45569419    -0.07200
C369        C  0.00238749  0.29454702  0.50215311     0.06400
C370        C  0.99899931  0.26612505  0.54856628    -0.02200
Br371      Br  0.99567415  0.29835951  0.61467351    -0.01900
H372        H  0.99791121  0.19102943  0.58356409     0.10300
H373        H  0.00996910  0.28856961  0.41967510     0.08300
Br374      Br  0.01215303  0.18011326  0.38962546    -0.02300
loop_ 
_geom_bond_atom_site_label_1 
_geom_bond_atom_site_label_2 
_geom_bond_distance 
_geom_bond_site_symmetry_2 
_ccdc_geom_bond_type 
N1            C6   1.356       .  A
N1            C5   1.355       .  A
N1           H33   1.036       .  S
N2            C9   1.353       .  A
N2           C10   1.354       .  A
N3            C8   1.354       .  A
N3            C7   1.355       .  A
N3           H34   1.037       .  S
N4           C11   1.354       .  A
N4           C12   1.353       .  A
C5           C13   1.386       .  A
C5           C21   1.419   1_545  A
C6           C22   1.422   1_655  A
C6           C14   1.388       .  A
C7           C15   1.387       .  A
C7           C24   1.418   1_455  A
C8           C23   1.417       .  A
C8           C16   1.387       .  A
C9           C21   1.418       .  A
C9           C17   1.387       .  A
C10          C24   1.417       .  A
C10          C18   1.386       .  A
C11          C19   1.387       .  A
C11          C22   1.420       .  A
C12          C20   1.386       .  A
C12          C23   1.417   1_545  A
C13          C14   1.375       .  A
C13          H25   1.082       .  S
C14          H26   1.082       .  S
C15          C16   1.374       .  A
C15          H27   1.082       .  S
C16          H28   1.082       .  S
C17          C18   1.374       .  A
C17          H29   1.082       .  S
C18          H30   1.082       .  S
C19          C20   1.373       .  A
C19          H31   1.082       .  S
C20          H32   1.082       .  S
C21         C346   1.491       .  S
C22         C366   1.496       .  S
C23         C336   1.490       .  S
C24         C356   1.492       .  S
Zn35         O39   1.957   1_655  S
Zn35         O40   2.029       .  S
Zn35         O44   2.031       .  S
Zn35         O51   1.997       .  S
Zn36         O39   1.964       .  S
Zn36         O41   2.004       .  S
Zn36         O43   2.024       .  S
Zn36         O47   2.042       .  S
Zn37         O39   1.962       .  S
Zn37         O42   2.035       .  S
Zn37         O45   1.989       .  S
Zn37         O48   2.033       .  S
Zn38         O39   1.954   1_655  S
Zn38         O46   2.010       .  S
Zn38         O49   2.013       .  S
Zn38         O50   1.989       .  S
O40          C52   1.272       .  A
O41          C53   1.274       .  A
O42          C54   1.275       .  A
O43          C52   1.274   1_455  A
O44          C54   1.274   1_655  A
O45          C53   1.272       .  A
O46          C55   1.270   1_655  A
O47          C56   1.275       .  A
O48          C55   1.275       .  A
O49          C56   1.271   1_655  A
O50          C57   1.271       .  A
O51          C57   1.274       .  A
C52         C316   1.497       .  S
C53         C306   1.460       .  S
C54         C369   1.489       .  S
C55         C326   1.491       .  S
C56         C359   1.478       .  S
C57         C296   1.465       .  S
Zn58         O62   1.958       .  S
Zn58         O63   2.025       .  S
Zn58         O67   1.987       .  S
Zn58         O74   2.024       .  S
Zn59         O62   1.960   1_545  S
Zn59         O64   2.029       .  S
Zn59         O66   2.027       .  S
Zn59         O70   1.995       .  S
Zn60         O62   1.959       .  S
Zn60         O65   1.996       .  S
Zn60         O68   2.029       .  S
Zn60         O71   2.030       .  S
Zn61         O62   1.957   1_545  S
Zn61         O69   2.027       .  S
Zn61         O72   1.988       .  S
Zn61         O73   2.033       .  S
O63          C75   1.272       .  A
O64          C76   1.273   1_545  A
O65          C77   1.275       .  A
O66          C75   1.275   1_545  A
O67          C77   1.271       .  A
O68          C76   1.274       .  A
O69          C78   1.273   1_545  A
O70          C79   1.274       .  A
O71          C78   1.274       .  A
O72          C79   1.272       .  A
O73          C80   1.274       .  A
O74          C80   1.273   1_565  A
C75         C339   1.493       .  S
C76         C276   1.484       .  S
C77         C256   1.471       .  S
C78         C349   1.490       .  S
C79         C266   1.469       .  S
C80         C286   1.485       .  S
N81          C86   1.356       .  A
N81          C85   1.355       .  A
N81         H113   1.035       .  S
N82          C89   1.354       .  A
N82          C90   1.354       .  A
N83          C88   1.356       .  A
N83          C87   1.355       .  A
N83         H114   1.035       .  S
N84          C91   1.353       .  A
N84          C92   1.353       .  A
C85          C93   1.387       .  A
C85         C101   1.419   1_565  A
C86         C102   1.420   1_554  A
C86          C94   1.387       .  A
C87          C95   1.387       .  A
C87         C104   1.420       .  A
C88         C103   1.420       .  A
C88          C96   1.387       .  A
C89         C101   1.417       .  A
C89          C97   1.386       .  A
C90         C104   1.418   1_554  A
C90          C98   1.386       .  A
C91          C99   1.386       .  A
C91         C102   1.416       .  A
C92         C100   1.387       .  A
C92         C103   1.417   1_565  A
C93          C94   1.376       .  A
C93         H105   1.082       .  S
C94         H106   1.082       .  S
C95          C96   1.376       .  A
C95         H107   1.082       .  S
C96         H108   1.082       .  S
C97          C98   1.373       .  A
C97         H109   1.082       .  S
C98         H110   1.082       .  S
C99         C100   1.372       .  A
C99         H111   1.082       .  S
C100        H112   1.082       .  S
C101        C289   1.491       .  S
C102        C239   1.492       .  S
C103        C279   1.491       .  S
C104        C246   1.494       .  S
N115        C120   1.354       .  A
N115        C119   1.354       .  A
N115        H147   1.038       .  S
N116        C123   1.353       .  A
N116        C124   1.353       .  A
N117        C122   1.355       .  A
N117        C121   1.354       .  A
N117        H148   1.040       .  S
N118        C125   1.351       .  A
N118        C126   1.352       .  A
C119        C127   1.387       .  A
C119        C135   1.417       .  A
C120        C136   1.417       .  A
C120        C128   1.387       .  A
C121        C129   1.388       .  A
C121        C138   1.418   1_455  A
C122        C137   1.416   1_556  A
C122        C130   1.386       .  A
C123        C135   1.416   1_556  A
C123        C131   1.386       .  A
C124        C138   1.416       .  A
C124        C132   1.386       .  A
C125        C133   1.387       .  A
C125        C136   1.414   1_455  A
C126        C134   1.386       .  A
C126        C137   1.412       .  A
C127        C128   1.378       .  A
C127        H139   1.082       .  S
C128        H140   1.082       .  S
C129        C130   1.376       .  A
C129        H141   1.082       .  S
C130        H142   1.082       .  S
C131        C132   1.374       .  A
C131        H143   1.082       .  S
C132        H144   1.082       .  S
C133        C134   1.373       .  A
C133        H145   1.082       .  S
C134        H146   1.082       .  S
C135        C219   1.490       .  S
C136        C329   1.488       .  S
C137        C229   1.491       .  S
C138        C319   1.493       .  S
Zn149       O153   1.959   1_554  S
Zn149       O154   2.028       .  S
Zn149       O158   2.000       .  S
Zn149       O165   2.027       .  S
Zn150       O153   1.955       .  S
Zn150       O155   2.024       .  S
Zn150       O157   2.024       .  S
Zn150       O161   1.986       .  S
Zn151       O153   1.958   1_554  S
Zn151       O156   1.989       .  S
Zn151       O159   2.029       .  S
Zn151       O162   2.029       .  S
Zn152       O153   1.968       .  S
Zn152       O160   2.039       .  S
Zn152       O163   2.002       .  S
Zn152       O164   2.034       .  S
O154        C166   1.274       .  A
O155        C167   1.273       .  A
O156        C168   1.271       .  A
O157        C166   1.273   1_556  A
O158        C168   1.274       .  A
O159        C167   1.272   1_554  A
O160        C169   1.276   1_556  A
O161        C170   1.273       .  A
O162        C169   1.273       .  A
O163        C170   1.273       .  A
O164        C171   1.275       .  A
O165        C171   1.274   1_554  A
C166        C216   1.486       .  S
C167        C249   1.495       .  S
C168        C206   1.459       .  S
C169        C226   1.498       .  S
C170        C196   1.470       .  S
C171        C236   1.489       .  S
Zn172       O176   1.936       .  S
Zn172       O177   1.983       .  S
Zn172       O181   1.988       .  S
Zn172       O188   1.980       .  S
Zn173       O176   1.941       .  S
Zn173       O178   1.999       .  S
Zn173       O180   1.986       .  S
Zn173       O184   1.989       .  S
Zn174       O176   1.934       .  S
Zn174       O179   1.987       .  S
Zn174       O182   1.978       .  S
Zn174       O185   1.988       .  S
Zn175       O176   1.941       .  S
Zn175       O183   1.980       .  S
Zn175       O186   1.996       .  S
Zn175       O187   1.997       .  S
O177        C189   1.269       .  A
O178        C190   1.271       .  A
O179        C191   1.270       .  A
O180        C189   1.270       .  A
O181        C191   1.269       .  A
O182        C190   1.268       .  A
O183        C192   1.268       .  A
O184        C193   1.270       .  A
O185        C192   1.270       .  A
O186        C193   1.271       .  A
O187        C194   1.270       .  A
O188        C194   1.269       .  A
C189        C269   1.464       .  S
C190        C209   1.465       .  S
C191        C309   1.467       .  S
C192        C259   1.473       .  S
C193        C299   1.463       .  S
C194        C199   1.457       .  S
C195        C196   1.405       .  A
C195        C200   1.389       .  A
C195        H202   1.084       .  S
C196        C197   1.414       .  A
C197        C198   1.397       .  A
C197       Br204   1.922       .  S
C198        C199   1.400       .  A
C198        H203   1.084       .  S
C199        C200   1.403       .  A
C200       Br201   1.921       .  S
C205        C206   1.398       .  A
C205        C210   1.392       .  A
C205        H212   1.084       .  S
C206        C207   1.408       .  A
C207        C208   1.395       .  A
C207       Br214   1.921       .  S
C208        C209   1.403       .  A
C208        H213   1.084       .  S
C209        C210   1.411       .  A
C210       Br211   1.922       .  S
C215        C216   1.406       .  A
C215        C220   1.400       .  A
C215        H222   1.083       .  S
C216        C217   1.415   1_554  A
C217        C218   1.403       .  A
C217       Br224   1.921       .  S
C218        C219   1.402   1_556  A
C218        H223   1.083       .  S
C219        C220   1.407       .  A
C220       Br221   1.917       .  S
C225        C226   1.411   1_556  A
C225        C230   1.403       .  A
C225        H232   1.083       .  S
C226        C227   1.421       .  A
C227        C228   1.401       .  A
C227       Br234   1.919       .  S
C228        C229   1.399       .  A
C228        H233   1.084       .  S
C229        C230   1.406   1_554  A
C230       Br231   1.918       .  S
C235        C236   1.407       .  A
C235        C240   1.401       .  A
C235        H242   1.083       .  S
C236        C237   1.416   1_556  A
C237        C238   1.403       .  A
C237       Br244   1.921       .  S
C238        C239   1.402   1_554  A
C238        H243   1.083       .  S
C239        C240   1.407       .  A
C240       Br241   1.918       .  S
C245        C246   1.402   1_554  A
C245        C250   1.403       .  A
C245        H252   1.084       .  S
C246        C247   1.407       .  A
C247        C248   1.400       .  A
C247       Br254   1.918       .  S
C248        C249   1.410       .  A
C248        H253   1.083       .  S
C249        C250   1.419   1_556  A
C250       Br251   1.919       .  S
C255        C256   1.403       .  A
C255        C260   1.392       .  A
C255        H262   1.084       .  S
C256        C257   1.413       .  A
C257        C258   1.393       .  A
C257       Br264   1.924       .  S
C258        C259   1.404       .  A
C258        H263   1.083       .  S
C259        C260   1.413       .  A
C260       Br261   1.924       .  S
C265        C266   1.404       .  A
C265        C270   1.393       .  A
C265        H272   1.084       .  S
C266        C267   1.412       .  A
C267        C268   1.392       .  A
C267       Br274   1.923       .  S
C268        C269   1.401       .  A
C268        H273   1.084       .  S
C269        C270   1.409       .  A
C270       Br271   1.923       .  S
C275        C276   1.406       .  A
C275        C280   1.401   1_565  A
C275        H282   1.083       .  S
C276        C277   1.413       .  A
C277        C278   1.402       .  A
C277       Br284   1.919       .  S
C278        C279   1.403   1_565  A
C278        H283   1.083       .  S
C279        C280   1.407       .  A
C280       Br281   1.918       .  S
C285        C286   1.406       .  A
C285        C290   1.402       .  A
C285        H292   1.083       .  S
C286        C287   1.414       .  A
C287        C288   1.401       .  A
C287       Br294   1.917       .  S
C288        C289   1.401       .  A
C288        H293   1.083       .  S
C289        C290   1.408       .  A
C290       Br291   1.917       .  S
C295        C296   1.402       .  A
C295        C300   1.393       .  A
C295        H302   1.084       .  S
C296        C297   1.411       .  A
C297        C298   1.394       .  A
C297       Br304   1.922       .  S
C298        C299   1.401       .  A
C298        H303   1.084       .  S
C299        C300   1.408       .  A
C300       Br301   1.921       .  S
C305        C306   1.400       .  A
C305        C310   1.395       .  A
C305        H312   1.084       .  S
C306        C307   1.406       .  A
C307        C308   1.391       .  A
C307       Br314   1.921       .  S
C308        C309   1.403       .  A
C308        H313   1.084       .  S
C309        C310   1.412       .  A
C310       Br311   1.922       .  S
C315        C316   1.410   1_455  A
C315        C320   1.400       .  A
C315        H322   1.083       .  S
C316        C317   1.421       .  A
C317        C318   1.403       .  A
C317       Br324   1.921       .  S
C318        C319   1.402       .  A
C318        H323   1.084       .  S
C319        C320   1.407   1_655  A
C320       Br321   1.920       .  S
C325        C326   1.409       .  A
C325        C330   1.400       .  A
C325        H332   1.083       .  S
C326        C327   1.420   1_455  A
C327        C328   1.400       .  A
C327       Br334   1.922       .  S
C328        C329   1.399       .  A
C328        H333   1.084       .  S
C329        C330   1.406   1_655  A
C330       Br331   1.918       .  S
C335        C336   1.401       .  A
C335        C340   1.402       .  A
C335        H342   1.084       .  S
C336        C337   1.405   1_565  A
C337        C338   1.399       .  A
C337       Br344   1.918       .  S
C338        C339   1.409   1_545  A
C338        H343   1.083       .  S
C339        C340   1.420       .  A
C340       Br341   1.920       .  S
C345        C346   1.401   1_545  A
C345        C350   1.401       .  A
C345        H352   1.083       .  S
C346        C347   1.407       .  A
C347        C348   1.403       .  A
C347       Br354   1.918       .  S
C348        C349   1.409       .  A
C348        H353   1.083       .  S
C349        C350   1.416   1_565  A
C350       Br351   1.921       .  S
C355        C356   1.404   1_455  A
C355        C360   1.401       .  A
C355        H362   1.083       .  S
C356        C357   1.409       .  A
C357        C358   1.402       .  A
C357       Br364   1.917       .  S
C358        C359   1.403   1_655  A
C358        H363   1.083       .  S
C359        C360   1.410       .  A
C360       Br361   1.919       .  S
C365        C366   1.403       .  A
C365        C370   1.403   1_455  A
C365        H372   1.083   1_455  S
C366        C367   1.409       .  A
C367        C368   1.403       .  A
C367       Br374   1.919       .  S
C368        C369   1.407       .  A
C368        H373   1.083       .  S
C369        C370   1.415   1_455  A
C370       Br371   1.920       .  S
