geometry optimzed in LAMMPS
_audit_creation_date              2020-12-01 
_audit_creation_method            'lammps2cif' 
_symmetry_space_group_name_H-M    'P1' 
_symmetry_Int_Tables_number       1 
_symmetry_cell_setting            triclinic 
loop_ 
_symmetry_equiv_pos_as_xyz 
  x,y,z 
_cell_length_a                    23.96021074 
_cell_length_b                    21.404386858478475 
_cell_length_c                    23.71016044415238 
_cell_angle_alpha                 84.37583135157314 
_cell_angle_beta                  101.4363973830971 
_cell_angle_gamma                 95.02778453196248 
loop_ 
_atom_site_label 
_atom_site_type_symbol 
_atom_site_fract_x 
_atom_site_fract_y 
_atom_site_fract_z 
_atom_site_charge 
O1          O  0.99851271  0.10192483  0.50484742    -0.72600
O2          O  0.02128077  0.96531925  0.42216296    -0.72600
O3          O  0.93095819  0.02890304  0.42831550    -0.72700
O4          O  0.08882953  0.03865027  0.49892465    -0.72700
O5          O  0.06994814  0.97218392  0.57265216    -0.72700
O6          O  0.91211512  0.96236879  0.50201195    -0.72600
O7          O  0.00247842  0.89911094  0.49611638    -0.72600
O8          O  0.97962980  0.03570195  0.57876127    -0.72700
Ni9        Ni  0.01060100  0.03620793  0.46094492     1.25400
Ni10       Ni  0.99033822  0.96483085  0.53999317     1.25400
C11         C  0.98630996  0.09136983  0.55520095     0.89600
C12         C  0.01465114  0.90965125  0.44575056     0.89500
C13         C  0.89588231  0.99384835  0.45369259     0.89500
C14         C  0.10502614  0.00724055  0.54729188     0.89700
O15         O  0.15768235  0.53953144  0.54638939    -0.79100
O16         O  0.87707625  0.53575487  0.51255945    -0.63800
O17         O  0.03915710  0.50151192  0.54670105    -1.10400
C18         C  0.00425695  0.41969792  0.36897101     1.07800
O19         O  0.84248791  0.46094022  0.45369299    -0.77000
O20         O  0.93006597  0.38343271  0.49488691    -0.64500
Ni21       Ni  0.09371250  0.56776341  0.57539891     1.34900
C22         C  0.98039897  0.36747217  0.51520007     0.86600
O23         O  0.96117584  0.54012654  0.60520843    -0.77500
O24         O  0.04058014  0.60401749  0.61309182    -0.87800
C25         C  0.83450531  0.50323239  0.48508955     0.86100
O26         O  0.07020351  0.61710411  0.50513999    -0.66000
O27         O  0.95951137  0.39647646  0.38685662    -0.85300
C28         C  0.01990388  0.63313878  0.48478628     0.87000
C29         C  0.99577048  0.58084838  0.63087988     1.08500
H30         H  0.95602263  0.53506722  0.42549999     0.40300
O31         O  0.96098696  0.49901794  0.45316179    -1.07900
O32         O  0.02477698  0.39346641  0.49774875    -0.64600
Ni33       Ni  0.04106962  0.48049941  0.47071057     1.26300
O34         O  0.97546324  0.60709955  0.50208550    -0.64800
O35         O  0.03889505  0.46042657  0.39460347    -0.77100
C36         C  0.16571302  0.49743322  0.51481962     0.86300
O37         O  0.12315860  0.46498076  0.48720419    -0.64300
Ni38       Ni  0.90642129  0.43270165  0.42460779     1.27400
Ni39       Ni  0.95908987  0.52008034  0.52912160     1.26100
H40         H  0.04408498  0.46540657  0.57436690     0.40900
O41         O  0.62007925  0.06255145  0.45535822    -0.79100
O42         O  0.40619006  0.03869696  0.55692040    -0.63800
O43         O  0.55025759  0.00709844  0.52869456    -1.10400
C44         C  0.43532127  0.92731453  0.36036980     1.07800
O45         O  0.38002987  0.93818780  0.54435733    -0.77000
O46         O  0.42867227  0.85338769  0.49040692    -0.64500
Ni47       Ni  0.61107542  0.07108079  0.53337545     1.34900
C48         C  0.48073574  0.84099129  0.49744427     0.86600
O49         O  0.51296513  0.05734916  0.61641748    -0.77500
O50         O  0.60625023  0.07963798  0.61247209    -0.87800
C51         C  0.37171786  0.99083970  0.56113835     0.86100
O52         O  0.57142558  0.14738507  0.50927360    -0.66000
O53         O  0.39356134  0.92097098  0.38717915    -0.85300
C54         C  0.51937399  0.15987895  0.50210826     0.88500
C55         C  0.56438110  0.07341967  0.63912915     1.08500
H56         H  0.43635146  0.02803163  0.44293738     0.40300
O57         O  0.44961415  0.99372102  0.47068942    -1.07900
O58         O  0.52007069  0.88460465  0.49099676    -0.64600
Ni59       Ni  0.52018044  0.97311246  0.45618932     1.26300
O60         O  0.47993187  0.11630179  0.50833660    -0.64800
O61         O  0.48677297  0.94350978  0.38291978    -0.77100
C62         C  0.62845490  0.00989307  0.43863942     0.86300
O63         O  0.59371499  0.96217402  0.44237817    -0.64300
Ni64       Ni  0.38889996  0.92960830  0.46628988     1.27400
Ni65       Ni  0.47969069  0.02776290  0.54313749     1.26100
H66         H  0.56342821  0.97273646  0.55642893     0.40900
O67         O  0.50408483  0.89999387  0.98873679    -0.72600
O68         O  0.41994225  0.04716364  0.96269146    -0.72600
O69         O  0.48912003  0.99643117  0.90541981    -0.72700
O70         O  0.43502540  0.95044447  0.04595821    -0.72700
O71         O  0.51075383  0.00413600  0.09430749    -0.72700
O72         O  0.56485409  0.05014437  0.95373212    -0.72600
O73         O  0.49584593  0.10058343  0.01104348    -0.72600
O74         O  0.57997255  0.95345485  0.03707321    -0.72700
Ni75       Ni  0.45933874  0.97151501  0.97395284     1.25400
Ni76       Ni  0.54056837  0.02906934  0.02577890     1.25400
C77         C  0.55514721  0.90237207  0.01780697     0.89600
C78         C  0.44476213  0.09822158  0.98204055     0.89500
C79         C  0.53542787  0.03134473  0.90660664     0.89500
C80         C  0.46441031  0.96926668  0.09308318     0.89700
O81         O  0.97177471  0.58103695  0.93774800    -0.72600
O82         O  0.99740781  0.50362236  0.09192020    -0.72600
O83         O  0.06035443  0.58115626  0.02810744    -0.72700
O84         O  0.90895398  0.50353623  0.00170184    -0.72700
O85         O  0.93983427  0.41927203  0.97176342    -0.72700
O86         O  0.09126499  0.49691147  0.99816696    -0.72600
O87         O  0.02843137  0.41937859  0.06211471    -0.72600
O88         O  0.00279043  0.49679214  0.90793748    -0.72700
Ni89       Ni  0.98345197  0.54533671  0.01599258     1.25400
Ni90       Ni  0.01675684  0.45508606  0.98387350     1.25400
C91         C  0.98336188  0.55139554  0.89773769     0.89600
C92         C  0.01681453  0.44900920  0.10211659     0.89500
C93         C  0.10048612  0.55145135  0.01729711     0.89500
C94         C  0.89971044  0.44900684  0.98256300     0.89700
O95         O  0.64663825  0.46017901  0.04266295    -0.79100
O96         O  0.40748352  0.56508077  0.04138889    -0.63800
O97         O  0.52963365  0.46403813  0.03933673    -1.10400
C98         C  0.48899687  0.51109305  0.83340431     1.07800
O99         O  0.35353095  0.54168702  0.95670335    -0.77000
O100        O  0.39146432  0.43634179  0.92739152    -0.64500
Ni101      Ni  0.59920606  0.47672164  0.09534326     1.34900
C102        C  0.42867953  0.39615162  0.93570515     0.86600
O103        O  0.46880091  0.49199619  0.12415226    -0.77500
O104        O  0.56220623  0.49069033  0.15869758    -0.87800
C105        C  0.36085300  0.56433346  0.00541381     0.86100
O106        O  0.60841602  0.56443339  0.07349473    -0.66000
O107        O  0.43782515  0.50857845  0.84136116    -0.85300
C108        C  0.57111593  0.60453254  0.06494240     0.87000
C109        C  0.51106670  0.48897408  0.16660754     1.08500
H110        H  0.48398245  0.58017672  0.95473094     0.40300
O111        O  0.47037273  0.53659585  0.96058838    -1.07900
O112        O  0.48198225  0.41051696  0.94022714    -0.64600
Ni113      Ni  0.53085339  0.48553654  0.95775509     1.26300
O114        O  0.51778030  0.59010254  0.05973648    -0.64800
O115        O  0.53126113  0.50869274  0.87586805    -0.77100
C116        C  0.63920621  0.43687115  0.99424578     0.86300
O117        O  0.59235890  0.43530921  0.95862525    -0.64300
Ni118      Ni  0.40090110  0.52378422  0.90447191     1.27400
Ni119      Ni  0.46909950  0.51502299  0.04220651     1.26100
H120        H  0.51603457  0.42044628  0.04520073     0.40900
O121        O  0.64875877  0.56158608  0.52750799    -0.79100
O122        O  0.37820488  0.52062605  0.52608519    -0.63800
O123        O  0.54096326  0.49688102  0.54374229    -1.10400
C124        C  0.49118328  0.47148242  0.33960259     1.07800
O125        O  0.35163387  0.43946218  0.47253120    -0.77000
O126        O  0.43613036  0.36791124  0.44774070    -0.64500
Ni127      Ni  0.59799361  0.55443798  0.58446800     1.34900
C128        C  0.48757179  0.35333910  0.46654789     0.86600
O129        O  0.46671444  0.51471792  0.62049350    -0.77500
O130        O  0.55864412  0.54806052  0.64991867    -0.87800
C131        C  0.33880768  0.48183538  0.50167774     0.86100
O132        O  0.56428529  0.63311417  0.55238308    -0.66000
O133        O  0.44175141  0.45278296  0.35017875    -0.85300
C134        C  0.51286048  0.64768425  0.53343362     0.87000
C135        C  0.50917759  0.52937708  0.66043513     1.08500
H136        H  0.45370628  0.54509992  0.43589291     0.40300
O137        O  0.45941724  0.50415836  0.45623897    -1.07900
O138        O  0.52957265  0.39567539  0.47372689    -0.64600
Ni139      Ni  0.53933216  0.48920556  0.46271887     1.26300
O140        O  0.47086062  0.60536139  0.52619629    -0.64800
O141        O  0.53364777  0.48633106  0.37947469    -0.77100
C142        C  0.66155067  0.51924329  0.49830004     0.86300
O143        O  0.62215198  0.48048385  0.47386626    -0.64300
Ni144      Ni  0.40240260  0.44654327  0.41559089     1.27400
Ni145      Ni  0.46104577  0.51185729  0.53725079     1.26100
H146        H  0.54665332  0.45592720  0.56406421     0.40900
C147        C  0.49805660  0.51728725  0.77294270    -0.11400
C148        C  0.50211759  0.52332303  0.72155326    -0.13000
C149        C  0.50207183  0.48300646  0.22706668    -0.11400
C150        C  0.49816579  0.47726823  0.27848596    -0.13000
C151        C  0.84272634  0.42127522  0.97343640    -0.16700
C152        C  0.79262909  0.40738460  0.96973174     0.07400
C153        C  0.73435225  0.40482824  0.97140313     0.09200
C154        C  0.68782705  0.41436087  0.97870042    -0.17500
C155        C  0.31227767  0.58703406  0.02087973    -0.16700
C156        C  0.26573851  0.59644308  0.02821571     0.07400
C157        C  0.20747071  0.59349549  0.02998802     0.09200
C158        C  0.15743232  0.57929055  0.02636113    -0.17500
C159        C  0.58333269  0.84517999  0.03114866    -0.16700
C160        C  0.59607796  0.79170863  0.04236549     0.07400
C161        C  0.59767135  0.72611261  0.05352089     0.09200
C162        C  0.58944229  0.66991342  0.06039243    -0.17500
C163        C  0.41031326  0.33077959  0.94059371    -0.16700
C164        C  0.40211948  0.27456222  0.94742059     0.07400
C165        C  0.40376328  0.20891919  0.95818749     0.09200
C166        C  0.41652602  0.15540939  0.96898848    -0.17500
C167        C  0.50216195  0.71622755  0.52068869    -0.11400
C168        C  0.49445355  0.77343170  0.51153037    -0.13000
C169        C  0.50582011  0.22751598  0.48816347    -0.11400
C170        C  0.49825073  0.28476849  0.47916103    -0.13000
C171        C  0.57519355  0.08148848  0.69942542    -0.16700
C172        C  0.57531834  0.07828682  0.75029630     0.07400
C173        C  0.56666207  0.06559935  0.80730300     0.09200
C174        C  0.55421216  0.05058581  0.85364302    -0.17500
C175        C  0.42430211  0.91924863  0.30007568    -0.16700
C176        C  0.42406686  0.92246680  0.24918961     0.07400
C177        C  0.43282619  0.93515891  0.19222922     0.09200
C178        C  0.44548127  0.95013186  0.14598008    -0.17500
C179        C  0.72280790  0.51639674  0.49234065    -0.11400
C180        C  0.77394223  0.51284473  0.48950497    -0.13000
C181        C  0.27751379  0.48462047  0.50760524    -0.11400
C182        C  0.22633146  0.48799785  0.51039505    -0.13000
C183        C  0.97545258  0.57979871  0.83997766    -0.16700
C184        C  0.97355867  0.59651248  0.78984953     0.07400
C185        C  0.97720788  0.60463697  0.73122103     0.09200
C186        C  0.98442453  0.60005178  0.68317444    -0.17500
C187        C  0.02463036  0.42057778  0.15985949    -0.16700
C188        C  0.02640581  0.40389983  0.20997521     0.07400
C189        C  0.02267350  0.39586582  0.26858127     0.09200
C190        C  0.01549162  0.40050594  0.31662891    -0.17500
C191        C  0.16430490  0.00954674  0.57223940    -0.16700
C192        C  0.21516675  0.00822248  0.58575236     0.07400
C193        C  0.27374152  0.00298998  0.58980215     0.09200
C194        C  0.32093071  0.99701544  0.58219718    -0.17500
C195        C  0.67961712  0.00355615  0.41826895    -0.16700
C196        C  0.72700429  0.99770476  0.41112829     0.07400
C197        C  0.78567097  0.99275718  0.41538256     0.09200
C198        C  0.83656209  0.99158564  0.42883760    -0.17500
C199        C  0.01928549  0.85658071  0.41577541    -0.16700
C200        C  0.01822624  0.80255697  0.40631406     0.07400
C201        C  0.01468696  0.73720378  0.41780636     0.09200
C202        C  0.01412439  0.68616387  0.44344958    -0.17500
C203        C  0.98165032  0.14441919  0.58517847    -0.16700
C204        C  0.98259564  0.19846118  0.59451703     0.07400
C205        C  0.98592711  0.26376427  0.58268846     0.09200
C206        C  0.98631097  0.31464395  0.55674585    -0.17500
loop_ 
_geom_bond_atom_site_label_1 
_geom_bond_atom_site_label_2 
_geom_bond_distance 
_geom_bond_site_symmetry_2 
_ccdc_geom_bond_type 
O1           Ni9   1.904   1_655  S
O1           C11   1.279       .  A
O2           Ni9   1.910   1_565  S
O2           C12   1.276       .  A
O3           Ni9   1.911   1_655  S
O3           C13   1.278   1_545  A
O4           Ni9   1.910       .  S
O4           C14   1.279       .  A
O5          Ni10   1.910   1_455  S
O5           C14   1.278   1_565  A
O6          Ni10   1.910       .  S
O6           C13   1.279       .  A
O7          Ni10   1.904   1_455  S
O7           C12   1.279       .  A
O8          Ni10   1.910   1_545  S
O8           C11   1.276       .  A
Ni9         Ni10   2.398   1_445  S
C11         C203   1.421       .  S
C12         C199   1.421       .  S
C13         C198   1.425       .  S
C14         C191   1.425       .  S
O15         Ni21   1.962       .  S
O15          C36   1.276       .  A
O16         Ni39   1.978       .  S
O16          C25   1.285       .  A
O17         Ni21   1.922       .  S
O17         Ni39   1.948   1_455  S
O17         Ni33   1.909       .  S
O17          H40   0.963       .  S
C18          O35   1.263       .  A
C18          O27   1.274   1_455  A
C18         C190   1.426       .  S
O19         Ni38   1.962       .  S
O19          C25   1.276       .  A
O20         Ni38   1.896       .  S
O20          C22   1.270       .  A
Ni21         O24   1.945       .  S
Ni21         O26   1.896       .  S
C22          O32   1.279   1_655  A
C22         C206   1.422       .  S
O23         Ni39   1.885       .  S
O23          C29   1.263       .  A
O24          C29   1.273   1_455  A
C25         C180   1.509       .  S
O26          C28   1.270       .  A
O27         Ni38   1.944       .  S
C28          O34   1.279   1_455  A
C28         C202   1.423       .  S
C29         C186   1.426       .  S
H30          O31   0.962       .  S
O31         Ni39   1.909       .  S
O31         Ni33   1.948   1_655  S
O31         Ni38   1.922       .  S
O32         Ni33   1.942       .  S
Ni33         O37   1.979       .  S
Ni33         O35   1.885       .  S
O34         Ni39   1.942       .  S
C36          O37   1.285       .  A
C36         C182   1.509       .  S
O41         Ni47   1.932       .  S
O41          C62   1.275       .  A
O42         Ni65   1.892       .  S
O42          C51   1.267   1_545  A
O43         Ni47   1.905       .  S
O43         Ni65   1.887       .  S
O43         Ni59   1.915   1_545  S
O43          H66   0.968   1_545  S
C44          O61   1.275       .  A
C44          O53   1.279       .  A
C44         C175   1.426       .  S
O45         Ni64   1.932       .  S
O45          C51   1.275       .  A
O46         Ni64   1.942       .  S
O46          C48   1.273       .  A
Ni47         O50   1.929       .  S
Ni47         O52   1.942       .  S
C48          O58   1.288       .  A
C48         C168   1.502       .  S
O49         Ni65   1.906       .  S
O49          C55   1.275       .  A
O50          C55   1.279       .  A
C51         C194   1.425       .  S
O52          C54   1.273       .  A
O53         Ni64   1.929       .  S
C54          O60   1.288       .  A
C54         C169   1.502       .  S
C55         C171   1.426       .  S
H56          O57   0.968   1_545  S
O57         Ni65   1.914   1_565  S
O57         Ni59   1.887       .  S
O57         Ni64   1.905       .  S
O58         Ni59   1.991       .  S
Ni59         O63   1.893       .  S
Ni59         O61   1.907       .  S
O60         Ni65   1.991       .  S
C62          O63   1.267   1_545  A
C62         C195   1.425       .  S
O67         Ni75   1.910       .  S
O67          C77   1.279   1_556  A
O68         Ni75   1.915   1_545  S
O68          C78   1.279       .  A
O69         Ni75   1.912       .  S
O69          C79   1.279   1_565  A
O70         Ni75   1.912   1_554  S
O70          C80   1.278       .  A
O71         Ni76   1.913       .  S
O71          C80   1.279   1_545  A
O72         Ni76   1.912   1_556  S
O72          C79   1.278       .  A
O73         Ni76   1.910       .  S
O73          C78   1.279   1_554  A
O74         Ni76   1.914   1_565  S
O74          C77   1.278       .  A
Ni75        Ni76   2.397   1_566  S
C77         C159   1.428       .  S
C78         C166   1.428       .  S
C79         C174   1.428       .  S
C80         C178   1.428       .  S
O81         Ni89   1.913   1_556  S
O81          C91   1.278       .  A
O82         Ni89   1.910       .  S
O82          C92   1.279   1_655  A
O83         Ni89   1.911   1_455  S
O83          C93   1.277       .  A
O84         Ni89   1.908       .  S
O84          C94   1.279   1_554  A
O85         Ni90   1.911   1_655  S
O85          C94   1.277       .  A
O86         Ni90   1.909       .  S
O86          C93   1.279   1_556  A
O87         Ni90   1.912   1_554  S
O87          C92   1.278       .  A
O88         Ni90   1.910       .  S
O88          C91   1.279   1_455  A
Ni89        Ni90   2.397   1_654  S
C91         C183   1.427       .  S
C92         C187   1.426       .  S
C93         C158   1.425       .  S
C94         C151   1.425       .  S
O95        Ni101   1.923       .  S
O95         C116   1.270   1_554  A
O96        Ni119   1.895       .  S
O96         C105   1.264       .  A
O97        Ni101   1.931       .  S
O97        Ni119   1.905       .  S
O97        Ni113   1.949   1_554  S
O97         H120   0.967       .  S
C98         O115   1.279       .  A
C98         O107   1.273       .  A
C98         C147   1.484       .  S
O99        Ni118   1.922       .  S
O99         C105   1.270   1_556  A
O100       Ni118   1.904       .  S
O100        C102   1.267       .  A
Ni101       O104   1.948       .  S
Ni101       O106   1.904       .  S
C102        O112   1.273       .  A
C102        C163   1.430       .  S
O103       Ni119   1.958       .  S
O103        C109   1.280       .  A
O104        C109   1.273       .  A
C105        C155   1.424       .  S
O106        C108   1.267       .  A
O107       Ni118   1.949       .  S
C108        O114   1.273       .  A
C108        C162   1.430       .  S
C109        C149   1.483       .  S
H110        O111   0.967       .  S
O111       Ni119   1.951   1_556  S
O111       Ni113   1.905       .  S
O111       Ni118   1.931       .  S
O112       Ni113   1.931       .  S
Ni113       O117   1.895       .  S
Ni113       O115   1.958       .  S
O114       Ni119   1.930       .  S
C116        O117   1.264       .  A
C116        C154   1.424       .  S
O121       Ni127   1.976       .  S
O121        C142   1.285       .  A
O122       Ni145   1.973       .  S
O122        C131   1.287       .  A
O123       Ni127   1.932       .  S
O123       Ni145   1.943       .  S
O123       Ni139   1.936       .  S
O123        H146   0.965       .  S
C124        O141   1.285       .  A
C124        O133   1.281       .  A
C124        C150   1.483       .  S
O125       Ni144   1.976       .  S
O125        C131   1.285       .  A
O126       Ni144   1.952       .  S
O126        C128   1.280       .  A
Ni127       O130   1.958       .  S
Ni127       O132   1.952       .  S
C128        O138   1.290       .  A
C128        C170   1.503       .  S
O129       Ni145   1.958       .  S
O129        C135   1.285       .  A
O130        C135   1.281       .  A
C131        C181   1.510       .  S
O132        C134   1.280       .  A
O133       Ni144   1.957       .  S
C134        O140   1.290       .  A
C134        C167   1.503       .  S
C135        C148   1.484       .  S
H136        O137   0.965       .  S
O137       Ni145   1.936       .  S
O137       Ni139   1.943       .  S
O137       Ni144   1.932       .  S
O138       Ni139   1.993       .  S
Ni139       O143   1.972       .  S
Ni139       O141   1.958       .  S
O140       Ni145   1.992       .  S
C142        O143   1.287       .  A
C142        C179   1.509       .  S
C147        C148   1.235       .  T
C149        C150   1.235       .  T
C151        C152   1.199       .  T
C152        C153   1.401       .  S
C153        C154   1.199       .  T
C155        C156   1.199       .  T
C156        C157   1.401       .  S
C157        C158   1.199       .  T
C159        C160   1.201       .  T
C160        C161   1.405       .  S
C161        C162   1.202       .  T
C163        C164   1.202       .  T
C164        C165   1.406       .  S
C165        C166   1.202       .  T
C167        C168   1.246       .  T
C169        C170   1.246       .  T
C171        C172   1.201       .  T
C172        C173   1.405       .  S
C173        C174   1.201       .  T
C175        C176   1.201       .  T
C176        C177   1.404       .  S
C177        C178   1.201       .  T
C179        C180   1.250       .  T
C181        C182   1.250       .  T
C183        C184   1.200       .  T
C184        C185   1.403       .  S
C185        C186   1.200       .  T
C187        C188   1.200       .  T
C188        C189   1.403       .  S
C189        C190   1.200       .  T
C191        C192   1.199       .  T
C192        C193   1.401       .  S
C193        C194   1.199   1_545  T
C195        C196   1.200   1_545  T
C196        C197   1.402       .  S
C197        C198   1.199       .  T
C199        C200   1.196       .  T
C200        C201   1.397       .  S
C201        C202   1.197       .  T
C203        C204   1.196       .  T
C204        C205   1.397       .  S
C205        C206   1.197       .  T
