geometry optimzed in LAMMPS
_audit_creation_date              2020-12-01 
_audit_creation_method            'lammps2cif' 
_symmetry_space_group_name_H-M    'P1' 
_symmetry_Int_Tables_number       1 
_symmetry_cell_setting            triclinic 
loop_ 
_symmetry_equiv_pos_as_xyz 
  x,y,z 
_cell_length_a                    21.59635536 
_cell_length_b                    19.7206598516218 
_cell_length_c                    20.37980701740117 
_cell_angle_alpha                 89.52577473608505 
_cell_angle_beta                  91.16900071611508 
_cell_angle_gamma                 90.0258147500249 
loop_ 
_atom_site_label 
_atom_site_type_symbol 
_atom_site_fract_x 
_atom_site_fract_y 
_atom_site_fract_z 
_atom_site_charge 
N1          N  0.06615941  0.86980501  0.07612356    -0.03800
N2          N  0.11048831  0.82454174  0.08497859    -0.55900
N3          N  0.92653318  0.92114112  0.12329351    -0.03500
N4          N  0.87870128  0.91650159  0.16214949    -0.58000
N5          N  0.92383864  0.87420562  0.07799649    -0.03100
N6          N  0.87412809  0.83630476  0.08485202    -0.55900
N7          N  0.06924030  0.91649351  0.12171869    -0.02800
N8          N  0.11593311  0.90396444  0.16290855    -0.58400
C9          C  0.14134514  0.84697950  0.13864697     0.98400
C10         C  0.84640797  0.86406031  0.13681999     0.98200
N11         N  0.92794601  0.12386116  0.07519737    -0.04000
N12         N  0.88162445  0.16617358  0.08294320    -0.56500
N13         N  0.07065168  0.07576360  0.12012957    -0.02100
N14         N  0.11452343  0.08921913  0.16398661    -0.57800
N15         N  0.06922851  0.12241642  0.07370195    -0.04000
N16         N  0.11207755  0.16864909  0.08464953    -0.56800
N17         N  0.92900026  0.07733553  0.12169817    -0.01700
N18         N  0.88325056  0.08682498  0.16241728    -0.57800
Mn19       Mn  0.99932771  0.99754715  0.12430021     1.18400
C20         C  0.85405540  0.14171652  0.13685102     1.00500
C21         C  0.14018318  0.14655850  0.14035428     1.01100
N22         N  0.91871419  0.87189150  0.92693492    -0.04000
N23         N  0.87353913  0.82745170  0.92021475    -0.60300
N24         N  0.05947405  0.91717787  0.87696909    -0.02800
N25         N  0.10633879  0.90816885  0.83729931    -0.61000
N26         N  0.06061549  0.87089971  0.92386729    -0.03500
N27         N  0.10792483  0.82950802  0.91731805    -0.60600
N28         N  0.91593172  0.91813358  0.88006816    -0.02400
N29         N  0.86845309  0.90566793  0.83995509    -0.61300
Mn30       Mn  0.99241016  0.86945549  0.00120050     1.10700
C31         C  0.84233266  0.84953557  0.86645220     1.01700
C32         C  0.13610881  0.85378053  0.86366799     1.01800
N33         N  0.06381667  0.12206278  0.92143364    -0.03600
N34         N  0.10949156  0.16495570  0.91200507    -0.58900
N35         N  0.91841266  0.08033510  0.87783367    -0.02900
N36         N  0.87170054  0.09512953  0.83716335    -0.55700
N37         N  0.92284737  0.12645292  0.92395397    -0.04200
N38         N  0.87968568  0.17312093  0.91622474    -0.58500
N39         N  0.06127837  0.07634225  0.87484595    -0.03200
N40         N  0.10559288  0.08730041  0.83229552    -0.55700
Mn41       Mn  0.99618365  0.12551080  0.99852554     1.20200
Mn42       Mn  0.98828534  0.99779586  0.87429711     1.10100
Cl43       Cl  0.99417989  0.99758662  0.99939250    -0.83600
C44         C  0.13532176  0.14217768  0.85692174     0.98700
C45         C  0.84789085  0.15262893  0.86261331     0.98500
C46         C  0.72585065  0.73588737  0.75301665    -0.00200
C47         C  0.73719690  0.75640943  0.25450920    -0.00200
N48         N  0.59595436  0.68020318  0.00414786    -0.34300
N49         N  0.49412866  0.69090722  0.90487206    -0.54900
N50         N  0.40690193  0.69754258  0.01301233    -0.34300
N51         N  0.50960409  0.69984614  0.10992088    -0.54900
C52         C  0.62707356  0.69377183  0.94838277     0.29300
C53         C  0.63465728  0.69486371  0.05560240     0.29300
C54         C  0.36881597  0.70920900  0.96033459     0.29300
C55         C  0.37809901  0.72165173  0.06673878     0.29300
C56         C  0.54190197  0.67615018  0.86507702     0.37900
C57         C  0.44074430  0.67954346  0.87023278     0.37900
C58         C  0.56027323  0.68194434  0.14614185     0.37900
C59         C  0.46089554  0.69724946  0.15050678     0.37900
C60         C  0.68596150  0.71723328  0.96484416    -0.19600
C61         C  0.69069929  0.71802182  0.03198717    -0.19600
C62         C  0.31501211  0.74016511  0.98119505    -0.19600
C63         C  0.32101060  0.74823192  0.04784122    -0.19600
C64         C  0.51880194  0.65592469  0.80441684    -0.20600
C65         C  0.45493835  0.65751611  0.80781074    -0.20600
C66         C  0.54331724  0.66653084  0.20982389    -0.20600
C67         C  0.48050781  0.67768557  0.21289961    -0.20600
C68         C  0.60584825  0.68234178  0.88287837    -0.16000
C69         C  0.62175072  0.68632099  0.12336884    -0.16000
C70         C  0.40013195  0.71775129  0.13286566    -0.16000
C71         C  0.37987537  0.69132331  0.89406226    -0.16000
H72         H  0.72209766  0.73258822  0.93193839     0.16900
H73         H  0.73096391  0.73462935  0.05994743     0.16900
H74         H  0.27553996  0.75627941  0.95144214     0.16900
H75         H  0.28677704  0.77086275  0.07879352     0.16900
H76         H  0.54512731  0.64081383  0.76235624     0.15200
H77         H  0.42286812  0.64359366  0.76873888     0.15200
H78         H  0.57311189  0.65016700  0.25023657     0.15200
H79         H  0.45242563  0.67181458  0.25595525     0.15200
H80         H  0.55220894  0.65854033  0.00681944     0.28500
H81         H  0.44881261  0.67187179  0.01250476     0.28500
C82         C  0.72781480  0.27303045  0.75716539    -0.00200
N83         N  0.71901973  0.00975239  0.60286583    -0.34300
N84         N  0.71922578  0.11910962  0.50445910    -0.54900
N85         N  0.74415012  0.01343245  0.40836266    -0.34300
N86         N  0.73156599  0.90470227  0.50680694    -0.54900
C87         C  0.69707284  0.06377354  0.63528767     0.29300
C88         C  0.70212362  0.95370524  0.63675973     0.29300
C89         C  0.73800568  0.06861085  0.36888230     0.29300
C90         C  0.74311354  0.95801601  0.36968821     0.29300
C91         C  0.72707675  0.15605436  0.55948882     0.37900
C92         C  0.73958593  0.15801952  0.45463427     0.37900
C93         C  0.74020628  0.86649869  0.56152578     0.37900
C94         C  0.75386695  0.86850736  0.45680201     0.37900
C95         C  0.66543059  0.04197235  0.69010388    -0.19600
C96         C  0.66861597  0.97237288  0.69103397    -0.19600
C97         C  0.73294955  0.04800757  0.30407526    -0.19600
C98         C  0.73602190  0.97830212  0.30457958    -0.19600
C99         C  0.75133117  0.21930134  0.54429594    -0.20600
C100        C  0.75834178  0.22087057  0.47755141    -0.20600
C101        C  0.76762912  0.80527759  0.54616248    -0.20600
C102        C  0.77550006  0.80619218  0.47943814    -0.20600
C103        C  0.71348473  0.13174504  0.62281099    -0.16000
C104        C  0.72243708  0.88707773  0.62442142    -0.16000
C105        C  0.75346584  0.89022962  0.39081624    -0.16000
C106        C  0.74290738  0.13697542  0.38901146    -0.16000
H107        H  0.64446333  0.07331699  0.72692660     0.16900
H108        H  0.65024297  0.93926235  0.72853611     0.16900
H109        H  0.72875771  0.07993035  0.26076777     0.16900
H110        H  0.73472103  0.94635163  0.26165774     0.16900
H111        H  0.76446699  0.25967635  0.57728095     0.15200
H112        H  0.77729879  0.26255973  0.44948549     0.15200
H113        H  0.78118592  0.76441675  0.57910322     0.15200
H114        H  0.79583154  0.76609530  0.45100832     0.15200
H115        H  0.74976662  0.01166689  0.56432419     0.28500
H116        H  0.75327147  0.01383984  0.45842555     0.28500
C117        C  0.74787207  0.26449029  0.24479185    -0.00200
N118        N  0.59042008  0.31001676  0.00970734    -0.34300
N119        N  0.49787989  0.29280196  0.90432391    -0.54900
N120        N  0.40147330  0.27665543  0.00301855    -0.34300
N121        N  0.49466184  0.28737258  0.10684379    -0.54900
C122        C  0.62656157  0.30362473  0.95656342     0.29300
C123        C  0.62514510  0.29099314  0.06299098     0.29300
C124        C  0.37130166  0.25401464  0.94833883     0.29300
C125        C  0.36953475  0.25471168  0.05590563     0.29300
C126        C  0.54573307  0.31565400  0.86816241     0.37900
C127        C  0.44684903  0.29286162  0.86445046     0.37900
C128        C  0.54384421  0.29672309  0.14750378     0.37900
C129        C  0.44424635  0.28748946  0.14479937     0.37900
C130        C  0.68516606  0.28189254  0.97661655    -0.19600
C131        C  0.68414342  0.27364859  0.04343906    -0.19600
C132        C  0.31878368  0.21858195  0.96698083    -0.19600
C133        C  0.31766097  0.21913944  0.03447026    -0.19600
C134        C  0.52468920  0.33094715  0.80502762    -0.20600
C135        C  0.46247083  0.31534648  0.80236441    -0.20600
C136        C  0.52483027  0.30320032  0.21163410    -0.20600
C137        C  0.46152286  0.29777630  0.20993438    -0.20600
C138        C  0.60870601  0.31695647  0.89034309    -0.16000
C139        C  0.60563599  0.28901732  0.12895364    -0.16000
C140        C  0.38488879  0.26710138  0.12296794    -0.16000
C141        C  0.38805800  0.26693100  0.88206531    -0.16000
H142        H  0.72444207  0.27125291  0.94621428     0.16900
H143        H  0.72265009  0.25640712  0.07393042     0.16900
H144        H  0.28428125  0.19497560  0.93543844     0.16900
H145        H  0.28247480  0.19581323  0.06425541     0.16900
H146        H  0.55142345  0.35012258  0.76457460     0.15200
H147        H  0.43242501  0.31979495  0.75943079     0.15200
H148        H  0.55380959  0.30860235  0.25525802     0.15200
H149        H  0.43212668  0.29763942  0.25229853     0.15200
H150        H  0.54524455  0.32809225  0.00945105     0.28500
H151        H  0.44033339  0.30764461  0.00406205     0.28500
C152        C  0.25402533  0.73910074  0.75933106    -0.00200
N153        N  0.08571628  0.50401043  0.73216546    -0.34300
N154        N  0.98794173  0.40050613  0.72092509    -0.54900
N155        N  0.89157889  0.50476286  0.72500153    -0.34300
N156        N  0.98891787  0.60860268  0.72291589    -0.54900
C157        C  0.11758538  0.44893830  0.71212129     0.29300
C158        C  0.11842577  0.55978295  0.71460920     0.29300
C159        C  0.85928663  0.44977087  0.70464913     0.29300
C160        C  0.85960645  0.56023077  0.70442691     0.29300
C161        C  0.03825262  0.36169096  0.73592930     0.37900
C162        C  0.93730734  0.36229625  0.73420489     0.37900
C163        C  0.03937433  0.64628188  0.74026064     0.37900
C164        C  0.93800915  0.64647617  0.73590169     0.37900
C165        C  0.17063538  0.47003914  0.68068280    -0.19600
C166        C  0.17111877  0.53988952  0.68216393    -0.19600
C167        C  0.80677970  0.47035720  0.66970636    -0.19600
C168        C  0.80709393  0.54020276  0.66933963    -0.19600
C169        C  0.01940238  0.29883509  0.75916371    -0.20600
C170        C  0.95571001  0.29925010  0.75820276    -0.20600
C171        C  0.02016444  0.70807703  0.76478137    -0.20600
C172        C  0.95638376  0.70818194  0.76207077    -0.20600
C173        C  0.10064377  0.38043257  0.72396771    -0.16000
C174        C  0.10229303  0.62764414  0.72932460    -0.16000
C175        C  0.87554527  0.62783001  0.72021539    -0.16000
C176        C  0.87499150  0.38194043  0.72020015    -0.16000
H177        H  0.20504992  0.43853335  0.65804201     0.16900
H178        H  0.20584429  0.57218857  0.66057251     0.16900
H179        H  0.77206089  0.43844018  0.64653530     0.16900
H180        H  0.77265837  0.57242792  0.64564676     0.16900
H181        H  0.04840949  0.25685930  0.77516012     0.15200
H182        H  0.92649951  0.25759124  0.77330824     0.15200
H183        H  0.04893289  0.74907333  0.78288297     0.15200
H184        H  0.92709195  0.74923518  0.77777261     0.15200
H185        H  0.04552082  0.50346724  0.75962129     0.28500
H186        H  0.93110990  0.50438232  0.75520211     0.28500
C187        C  0.24931618  0.26626865  0.75410088    -0.00200
N188        N  0.27341697  0.00369354  0.40340530    -0.34300
N189        N  0.26615528  0.89619967  0.50170781    -0.54900
N190        N  0.27289111  0.99910414  0.60573662    -0.34300
N191        N  0.27447198  0.10723484  0.50856112    -0.54900
C192        C  0.25956267  0.94940155  0.36490161     0.29300
C193        C  0.25846085  0.06083629  0.36873829     0.29300
C194        C  0.25221031  0.94458981  0.64014702     0.29300
C195        C  0.26745414  0.05454547  0.64441860     0.29300
C196        C  0.27141800  0.85623419  0.44844131     0.37900
C197        C  0.26371569  0.85456020  0.55465612     0.37900
C198        C  0.28085252  0.14774936  0.45528102     0.37900
C199        C  0.28934402  0.14503829  0.56180710     0.37900
C200        C  0.23826288  0.97282938  0.30409048    -0.19600
C201        C  0.23719998  0.04249161  0.30667395    -0.19600
C202        C  0.23453859  0.96580345  0.70182981    -0.19600
C203        C  0.24424318  0.03456797  0.70454824    -0.19600
C204        C  0.27273671  0.78865981  0.46789972    -0.20600
C205        C  0.26749160  0.78761264  0.53488226    -0.20600
C206        C  0.29933598  0.21192928  0.47468197    -0.20600
C207        C  0.30615754  0.20978450  0.54195538    -0.20600
C208        C  0.26470713  0.87920787  0.38260786    -0.16000
C209        C  0.26429717  0.12934735  0.39030316    -0.16000
C210        C  0.28329521  0.12273951  0.62780580    -0.16000
C211        C  0.25080854  0.87572338  0.61923202    -0.16000
H212        H  0.22419646  0.94303112  0.26200440     0.16900
H213        H  0.22257815  0.07579376  0.26689089     0.16900
H214        H  0.21683838  0.93507540  0.74144613     0.16900
H215        H  0.23434432  0.06624331  0.74611583     0.16900
H216        H  0.27403173  0.74427144  0.43717667     0.15200
H217        H  0.26445372  0.74233145  0.56492820     0.15200
H218        H  0.30735555  0.25572462  0.44368913     0.15200
H219        H  0.32097161  0.25162975  0.57243230     0.15200
H220        H  0.29273665  0.00203193  0.45033595     0.28500
H221        H  0.29188948  0.99827559  0.55951074     0.28500
C222        C  0.25317331  0.26762987  0.25095939    -0.00200
C223        C  0.26065083  0.73270035  0.25081323    -0.00200
N224        N  0.99788719  0.61393845  0.29218437    -0.34300
N225        N  0.90195214  0.51291409  0.27008892    -0.54900
N226        N  0.99697863  0.40514292  0.27386188    -0.34300
N227        N  0.09450732  0.50629913  0.28866107    -0.54900
C228        C  0.94892301  0.65446310  0.27503963     0.29300
C229        C  0.05054617  0.65133543  0.28664675     0.30900
C230        C  0.94808407  0.37134109  0.24715080     0.29300
C231        C  0.04827630  0.36677884  0.26516472     0.29300
C232        C  0.86417462  0.56750478  0.27295642     0.37900
C233        C  0.86491602  0.45825474  0.26206861     0.37900
C234        C  0.12816769  0.55970764  0.31079099     0.37900
C235        C  0.12685499  0.44955349  0.30544097     0.37900
C236        C  0.97110106  0.71890886  0.26066242    -0.19600
C237        C  0.03453835  0.71675042  0.26715238    -0.19600
C238        C  0.96845662  0.31041343  0.22170542    -0.19600
C239        C  0.03147037  0.30755949  0.23294126    -0.19600
C240        C  0.80286779  0.54673744  0.26616242    -0.20600
C241        C  0.80342315  0.47807230  0.26008734    -0.20600
C242        C  0.18187327  0.53671312  0.34200081    -0.20600
C243        C  0.18088861  0.46709506  0.33893380    -0.20600
C244        C  0.88473446  0.63578514  0.27161777    -0.16000
C245        C  0.11258384  0.62898449  0.30008078    -0.16000
C246        C  0.10932680  0.38259717  0.28784034    -0.16000
C247        C  0.88520449  0.39215795  0.24743278    -0.16000
H248        H  0.94473506  0.76343061  0.24630394     0.16900
H249        H  0.06505062  0.75906240  0.25767741     0.16900
H250        H  0.94081161  0.27170366  0.19769858     0.16900
H251        H  0.06136832  0.26647944  0.21857227     0.16900
H252        H  0.76122398  0.57654848  0.26142800     0.15200
H253        H  0.76281613  0.44717979  0.25104081     0.15200
H254        H  0.21774352  0.56695151  0.36532498     0.15200
H255        H  0.21582295  0.43338929  0.35955290     0.15200
H256        H  0.99584165  0.56402399  0.30835683     0.28500
H257        H  0.99504557  0.45023440  0.29958246     0.28500
C258        C  0.21827794  0.67381559  0.27154580    -0.14100
C259        C  0.16297906  0.68216893  0.30074831    -0.29300
H260        H  0.22931189  0.62352232  0.25393389     0.14900
H261        H  0.15092665  0.73238126  0.31718779     0.15500
C262        C  0.21381580  0.32967157  0.26859601    -0.14100
C263        C  0.15547060  0.32526213  0.29162271    -0.29300
H264        H  0.22972364  0.37921387  0.25252025     0.14900
H265        H  0.13753650  0.27553641  0.30390160     0.15500
C266        C  0.24533049  0.82827415  0.33195726    -0.14100
C267        C  0.28140089  0.77764576  0.30883490    -0.29300
H268        H  0.19934410  0.83579713  0.31078307     0.14900
H269        H  0.32857351  0.77288723  0.32790111     0.15500
C270        C  0.24058377  0.18382961  0.34484198    -0.14100
C271        C  0.27721254  0.22643491  0.31061628    -0.29300
H272        H  0.19160183  0.18128105  0.33242971     0.14900
H273        H  0.32686017  0.22462616  0.32047240     0.15500
C274        C  0.29070444  0.17130636  0.68410137    -0.14100
C275        C  0.26102858  0.23168229  0.68822759    -0.29300
H276        H  0.31239496  0.15071586  0.72829182     0.14900
H277        H  0.23661747  0.25133971  0.64502808     0.15500
C278        C  0.14802599  0.32443832  0.72039739    -0.14100
C279        C  0.20680070  0.32859573  0.74505303    -0.29300
H280        H  0.13208385  0.27540640  0.70296049     0.14900
H281        H  0.22214398  0.37674563  0.76513020     0.15500
C282        C  0.26701198  0.77679932  0.69469204    -0.14100
C283        C  0.22891052  0.82408879  0.66763507    -0.29300
H284        H  0.31308919  0.77288724  0.67449685     0.14900
H285        H  0.18382936  0.83276352  0.68850061     0.15500
C286        C  0.21116208  0.67718139  0.74897292    -0.14100
C287        C  0.15072358  0.68333225  0.72867617    -0.29300
H288        H  0.22824205  0.62784147  0.76482207     0.14900
H289        H  0.13421338  0.73367237  0.71589822     0.15500
C290        C  0.30726732  0.29011991  0.20855388    -0.14100
C291        C  0.34020663  0.24542255  0.17356090    -0.29300
H292        H  0.31652917  0.34384963  0.20145805     0.14900
H293        H  0.33054890  0.19150581  0.17786359     0.15500
C294        C  0.30917794  0.28732605  0.79148285    -0.14100
C295        C  0.34350949  0.24406559  0.82926057    -0.29300
H296        H  0.31962335  0.34104878  0.79576227     0.14900
H297        H  0.33152529  0.19067214  0.82996252     0.15500
C298        C  0.79658703  0.31582527  0.26638695    -0.14100
C299        C  0.83731170  0.34335836  0.22459908    -0.29300
H300        H  0.80044646  0.32885360  0.31809244     0.14900
H301        H  0.83622989  0.32973418  0.17304933     0.15500
C302        C  0.64930149  0.26207494  0.17967181    -0.14100
C303        C  0.69596577  0.29875164  0.20567732    -0.29300
H304        H  0.64565603  0.20841557  0.19158005     0.14900
H305        H  0.69903250  0.35249243  0.19383539     0.15500
C306        C  0.76380030  0.18665897  0.33978133    -0.14100
C307        C  0.72450676  0.22592094  0.30419436    -0.29300
H308        H  0.81262843  0.18547072  0.32789000     0.14900
H309        H  0.67545880  0.22576995  0.31519802     0.15500
C310        C  0.76821389  0.33518340  0.74363641    -0.14100
C311        C  0.82596025  0.32791151  0.71923260    -0.29300
H312        H  0.75294644  0.38461935  0.75985088     0.14900
H313        H  0.84012619  0.27740069  0.70483894     0.15500
C314        C  0.66095942  0.32580460  0.84352250    -0.14100
C315        C  0.66599161  0.28865394  0.78878729    -0.29300
H316        H  0.70189240  0.35248779  0.86139714     0.14900
H317        H  0.62623435  0.25871541  0.77288311     0.15500
C318        C  0.72937048  0.17143480  0.68205312    -0.14100
C319        C  0.71332586  0.23638831  0.69276811    -0.29300
H320        H  0.75324832  0.14225894  0.72001012     0.14900
H321        H  0.68644641  0.26364775  0.65541501     0.15500
C322        C  0.35874428  0.74377139  0.18504790    -0.14100
C323        C  0.31648116  0.70404970  0.21445107    -0.29300
H324        H  0.35606018  0.79838380  0.19081865     0.14900
H325        H  0.31957874  0.64972702  0.20643917     0.15500
C326        C  0.32291701  0.68763031  0.84992669    -0.14100
C327        C  0.31696983  0.72106791  0.79210849    -0.29300
H328        H  0.28103727  0.66723639  0.87123843     0.14900
H329        H  0.35840110  0.74424036  0.77248856     0.15500
C330        C  0.72359897  0.80161544  0.31231965    -0.14100
C331        C  0.76820161  0.83965269  0.34064139    -0.29300
H332        H  0.67646370  0.80631372  0.32955101     0.14900
H333        H  0.81552001  0.83725502  0.32367971     0.15500
C334        C  0.78300725  0.70093541  0.27772598    -0.14100
C335        C  0.83905850  0.68953865  0.25045113    -0.29300
H336        H  0.77001657  0.67106185  0.32030688     0.14900
H337        H  0.85293527  0.71964675  0.20869234     0.15500
C338        C  0.67609004  0.68894581  0.17083899    -0.14100
C339        C  0.67709734  0.72830375  0.22484966    -0.29300
H340        H  0.72001442  0.66897869  0.15451021     0.14900
H341        H  0.63408752  0.75114664  0.24018320     0.15500
C342        C  0.66236886  0.71740287  0.78113191    -0.14100
C343        C  0.65630739  0.67563852  0.83345098    -0.29300
H344        H  0.62284161  0.74851309  0.76635521     0.14900
H345        H  0.69698744  0.64723573  0.84967936     0.15500
C346        C  0.71548694  0.77786862  0.68984230    -0.14100
C347        C  0.73352652  0.84332483  0.68314724    -0.29300
H348        H  0.69118418  0.75366009  0.64913359     0.14900
H349        H  0.75508248  0.86973367  0.72397455     0.15500
C350        C  0.76720316  0.67450771  0.73901508    -0.14100
C351        C  0.82662509  0.68251686  0.71897047    -0.29300
H352        H  0.75068218  0.62430438  0.75197316     0.14900
H353        H  0.84184629  0.73374661  0.70779176     0.15500
C354        C  0.79414857  0.81087855  0.83545644    -0.11000
C355        C  0.75940523  0.77599739  0.80341337    -0.12500
C356        C  0.79959473  0.19251766  0.83258077    -0.11000
C357        C  0.76377032  0.22936096  0.80353722    -0.12500
C358        C  0.18656934  0.81993391  0.83371422    -0.11000
C359        C  0.22218326  0.78549729  0.80397648    -0.12500
C360        C  0.76386701  0.80029432  0.20395587    -0.11000
C361        C  0.79599801  0.83334745  0.16892686    -0.12500
C362        C  0.22459992  0.77428116  0.20319798    -0.11000
C363        C  0.18929067  0.80897812  0.17125892    -0.12500
C364        C  0.77689561  0.21490518  0.20186942    -0.11000
C365        C  0.80781400  0.17784920  0.17005720    -0.12500
C366        C  0.18138577  0.17961733  0.82333708    -0.11000
C367        C  0.21465805  0.21772471  0.79442450    -0.12500
C368        C  0.21453745  0.22347200  0.20943856    -0.11000
C369        C  0.18261583  0.18680737  0.17682677    -0.12500
loop_ 
_geom_bond_atom_site_label_1 
_geom_bond_atom_site_label_2 
_geom_bond_distance 
_geom_bond_site_symmetry_2 
_ccdc_geom_bond_type 
N1            N2   1.318       .  A
N1            N7   1.314       .  A
N1          Mn30   2.184   1_455  S
N2            C9   1.347       .  A
N3            N5   1.313       .  A
N3            N4   1.317       .  A
N3          Mn19   2.177       .  S
N4           C10   1.348       .  A
N5            N6   1.317       .  A
N5          Mn30   2.179       .  S
N6           C10   1.347       .  A
N7            N8   1.321       .  A
N7          Mn19   2.201   1_455  S
N8            C9   1.353       .  A
C9          C363   1.428       .  S
C10         C361   1.415       .  S
N11          N17   1.313       .  A
N11          N12   1.316       .  A
N11         Mn41   2.170   1_554  S
N12          C20   1.346       .  A
N13          N14   1.318       .  A
N13          N15   1.314       .  A
N13         Mn19   2.182   1_445  S
N14          C21   1.349       .  A
N15          N16   1.316       .  A
N15         Mn41   2.177   1_454  S
N16          C21   1.346       .  A
N17          N18   1.318       .  A
N17         Mn19   2.187   1_545  S
N18          C20   1.349       .  A
Mn19        Cl43   2.546   1_554  S
C20         C365   1.414       .  S
C21         C369   1.415       .  S
N22          N23   1.317       .  A
N22          N28   1.316       .  A
N22         Mn30   2.174   1_556  S
N23          C31   1.344       .  A
N24          N26   1.316       .  A
N24          N25   1.321       .  A
N24         Mn42   2.212   1_455  S
N25          C32   1.353       .  A
N26          N27   1.318       .  A
N26         Mn30   2.179   1_456  S
N27          C32   1.347       .  A
N28          N29   1.322       .  A
N28         Mn42   2.219       .  S
N29          C31   1.355       .  A
Mn30        Cl43   2.527   1_554  S
C31         C354   1.430       .  S
C32         C358   1.428       .  S
N33          N34   1.315       .  A
N33          N39   1.315       .  A
N33         Mn41   2.168   1_455  S
N34          C44   1.344       .  A
N35          N36   1.324       .  A
N35          N37   1.315       .  A
N35         Mn42   2.223   1_545  S
N36          C45   1.357       .  A
N37          N38   1.316       .  A
N37         Mn41   2.172       .  S
N38          C45   1.344       .  A
N39          N40   1.321       .  A
N39         Mn42   2.209   1_445  S
N40          C44   1.353       .  A
Mn41        Cl43   2.523   1_545  S
Mn42        Cl43   2.550       .  S
C44         C366   1.422       .  S
C45         C356   1.431       .  S
C46         C342   1.539       .  S
C46         C346   1.537       .  S
C46         C350   1.537       .  S
C46         C355   1.479       .  S
C47         C330   1.517       .  S
C47         C334   1.540       .  S
C47         C339   1.526       .  S
C47         C360   1.467       .  S
N48          C53   1.360       .  A
N48          C52   1.357   1_554  A
N48          H80   1.039       .  S
N49          C56   1.358       .  A
N49          C57   1.359       .  A
N50          C55   1.360       .  A
N50          C54   1.357   1_554  A
N50          H81   1.038       .  S
N51          C58   1.353       .  A
N51          C59   1.352       .  A
C52          C60   1.389       .  A
C52          C68   1.422       .  A
C53          C69   1.423       .  A
C53          C61   1.387       .  A
C54          C62   1.389       .  A
C54          C71   1.424       .  A
C55          C70   1.421       .  A
C55          C63   1.386       .  A
C56          C68   1.426       .  A
C56          C64   1.385       .  A
C57          C71   1.430       .  A
C57          C65   1.388       .  A
C58          C66   1.387       .  A
C58          C69   1.418       .  A
C59          C67   1.384       .  A
C59          C70   1.412       .  A
C60          C61   1.370   1_556  A
C60          H72   1.081       .  S
C61          H73   1.082       .  S
C62          C63   1.372   1_556  A
C62          H74   1.082       .  S
C63          H75   1.081       .  S
C64          C65   1.383       .  A
C64          H76   1.082       .  S
C65          H77   1.082       .  S
C66          C67   1.377       .  A
C66          H78   1.082       .  S
C67          H79   1.082       .  S
C68         C343   1.506       .  S
C69         C338   1.507       .  S
C70         C322   1.497       .  S
C71         C326   1.511       .  S
C82         C310   1.531       .  S
C82         C315   1.527       .  S
C82         C319   1.530       .  S
C82         C357   1.482       .  S
N83          C88   1.352   1_545  A
N83          C87   1.349       .  A
N83         H115   1.039       .  S
N84          C91   1.350       .  A
N84          C92   1.348       .  A
N85          C90   1.353   1_545  A
N85          C89   1.353       .  A
N85         H116   1.035       .  S
N86          C93   1.350       .  A
N86          C94   1.346       .  A
C87          C95   1.387       .  A
C87         C103   1.409       .  A
C88         C104   1.412       .  A
C88          C96   1.386       .  A
C89          C97   1.387       .  A
C89         C106   1.416       .  A
C90         C105   1.417       .  A
C90          C98   1.388       .  A
C91         C103   1.409       .  A
C91          C99   1.388       .  A
C92         C106   1.407       .  A
C92         C100   1.386       .  A
C93         C101   1.386       .  A
C93         C104   1.408       .  A
C94         C102   1.387       .  A
C94         C105   1.408       .  A
C95          C96   1.374   1_545  A
C95         H107   1.083       .  S
C96         H108   1.083       .  S
C97          C98   1.376   1_545  A
C97         H109   1.082       .  S
C98         H110   1.082       .  S
C99         C100   1.372       .  A
C99         H111   1.080       .  S
C100        H112   1.083       .  S
C101        C102   1.374       .  A
C101        H113   1.081       .  S
C102        H114   1.083       .  S
C103        C318   1.479       .  S
C104        C347   1.485       .  S
C105        C331   1.474       .  S
C106        C306   1.474       .  S
C117        C298   1.521       .  S
C117        C303   1.518       .  S
C117        C307   1.519       .  S
C117        C364   1.467       .  S
N118        C123   1.357       .  A
N118        C122   1.355   1_554  A
N118        H150   1.039       .  S
N119        C126   1.356       .  A
N119        C127   1.356       .  A
N120        C125   1.359       .  A
N120        C124   1.358   1_554  A
N120        H151   1.038       .  S
N121        C128   1.347       .  A
N121        C129   1.348       .  A
C122        C130   1.389       .  A
C122        C138   1.418       .  A
C123        C139   1.417       .  A
C123        C131   1.387       .  A
C124        C132   1.390       .  A
C124        C141   1.426       .  A
C125        C140   1.423       .  A
C125        C133   1.387       .  A
C126        C138   1.425       .  A
C126        C134   1.387       .  A
C127        C141   1.420       .  A
C127        C135   1.385       .  A
C128        C136   1.385       .  A
C128        C139   1.403       .  A
C129        C137   1.388       .  A
C129        C140   1.408       .  A
C130        C131   1.371   1_556  A
C130        H142   1.082       .  S
C131        H143   1.081       .  S
C132        C133   1.376   1_556  A
C132        H144   1.082       .  S
C133        H145   1.082       .  S
C134        C135   1.378       .  A
C134        H146   1.082       .  S
C135        H147   1.082       .  S
C136        C137   1.371       .  A
C136        H148   1.083       .  S
C137        H149   1.082       .  S
C138        C314   1.502       .  S
C139        C302   1.480       .  S
C140        C291   1.487       .  S
C141        C295   1.501       .  S
C152        C282   1.538       .  S
C152        C286   1.545       .  S
C152        C327   1.543       .  S
C152        C359   1.476       .  S
N153        C158   1.356       .  A
N153        C157   1.356       .  A
N153        H185   1.042       .  S
N154        C161   1.358   1_655  A
N154        C162   1.358       .  A
N155        C160   1.353       .  A
N155        C159   1.353       .  A
N155        H186   1.042       .  S
N156        C163   1.361   1_655  A
N156        C164   1.361       .  A
C157        C165   1.386       .  A
C157        C173   1.420       .  A
C158        C174   1.419       .  A
C158        C166   1.386       .  A
C159        C167   1.386       .  A
C159        C176   1.412       .  A
C160        C175   1.415       .  A
C160        C168   1.387       .  A
C161        C173   1.422       .  A
C161        C169   1.387       .  A
C162        C176   1.423       .  A
C162        C170   1.388       .  A
C163        C171   1.388       .  A
C163        C174   1.430       .  A
C164        C172   1.387       .  A
C164        C175   1.429       .  A
C165        C166   1.378       .  A
C165        H177   1.082       .  S
C166        H178   1.082       .  S
C167        C168   1.377       .  A
C167        H179   1.082       .  S
C168        H180   1.082       .  S
C169        C170   1.375   1_455  A
C169        H181   1.082       .  S
C170        H182   1.082       .  S
C171        C172   1.377   1_455  A
C171        H183   1.082       .  S
C172        H184   1.082       .  S
C173        C278   1.509       .  S
C174        C287   1.516       .  S
C175        C351   1.510       .  S
C176        C311   1.502       .  S
C187        C275   1.536       .  S
C187        C279   1.542       .  S
C187        C294   1.546       .  S
C187        C367   1.471       .  S
N188        C193   1.361       .  A
N188        C192   1.362   1_545  A
N188        H220   1.036       .  S
N189        C196   1.353       .  A
N189        C197   1.352       .  A
N190        C195   1.360   1_565  A
N190        C194   1.359       .  A
N190        H221   1.035       .  S
N191        C198   1.352       .  A
N191        C199   1.355       .  A
C192        C200   1.389       .  A
C192        C208   1.431       .  A
C193        C209   1.429       .  A
C193        C201   1.388       .  A
C194        C202   1.389       .  A
C194        C211   1.427       .  A
C195        C210   1.427       .  A
C195        C203   1.387       .  A
C196        C208   1.417       .  A
C196        C204   1.387       .  A
C197        C211   1.417       .  A
C197        C205   1.386       .  A
C198        C206   1.385       .  A
C198        C209   1.415       .  A
C199        C207   1.387       .  A
C199        C210   1.420       .  A
C200        C201   1.375   1_565  A
C200        H212   1.082       .  S
C201        H213   1.081       .  S
C202        C203   1.373   1_565  A
C202        H214   1.081       .  S
C203        H215   1.082       .  S
C204        C205   1.372       .  A
C204        H216   1.081       .  S
C205        H217   1.081       .  S
C206        C207   1.376       .  A
C206        H218   1.082       .  S
C207        H219   1.081       .  S
C208        C266   1.500       .  S
C209        C270   1.497       .  S
C210        C274   1.507       .  S
C211        C283   1.495       .  S
C222        C262   1.539       .  S
C222        C271   1.538       .  S
C222        C290   1.531       .  S
C222        C368   1.467       .  S
C223        C258   1.540       .  S
C223        C267   1.543       .  S
C223        C323   1.538       .  S
C223        C362   1.475       .  S
N224        C229   1.361   1_655  A
N224        C228   1.364       .  A
N224        H256   1.037       .  S
N225        C232   1.353       .  A
N225        C233   1.351       .  A
N226        C231   1.357   1_655  A
N226        C230   1.356       .  A
N226        H257   1.037       .  S
N227        C234   1.355       .  A
N227        C235   1.357       .  A
C228        C236   1.389       .  A
C228        C244   1.435       .  A
C229        C245   1.431       .  A
C229        C237   1.388       .  A
C230        C238   1.388       .  A
C230        C247   1.419       .  A
C231        C246   1.424       .  A
C231        C239   1.389       .  A
C232        C244   1.418       .  A
C232        C240   1.390       .  A
C233        C247   1.411       .  A
C233        C241   1.384       .  A
C234        C242   1.386       .  A
C234        C245   1.421       .  A
C235        C243   1.385       .  A
C235        C246   1.420       .  A
C236        C237   1.374   1_655  A
C236        H248   1.082       .  S
C237        H249   1.082       .  S
C238        C239   1.376   1_655  A
C238        H250   1.083       .  S
C239        H251   1.082       .  S
C240        C241   1.361       .  A
C240        H252   1.077       .  S
C241        H253   1.081       .  S
C242        C243   1.375       .  A
C242        H254   1.082       .  S
C243        H255   1.082       .  S
C244        C335   1.503       .  S
C245        C259   1.511       .  S
C246        C263   1.508       .  S
C247        C299   1.483       .  S
C258        C259   1.356       .  D
C258        H260   1.086       .  S
C259        H261   1.082       .  S
C262        C263   1.356       .  D
C262        H264   1.086       .  S
C263        H265   1.083       .  S
C266        C267   1.360       .  D
C266        H268   1.084       .  S
C267        H269   1.087       .  S
C270        C271   1.353       .  D
C270        H272   1.084       .  S
C271        H273   1.087       .  S
C274        C275   1.356       .  D
C274        H276   1.083       .  S
C275        H277   1.086       .  S
C278        C279   1.358       .  D
C278        H280   1.086       .  S
C279        H281   1.086       .  S
C282        C283   1.351       .  D
C282        H284   1.088       .  S
C283        H285   1.085       .  S
C286        C287   1.366       .  D
C286        H288   1.085       .  S
C287        H289   1.083       .  S
C290        C291   1.350       .  D
C290        H292   1.087       .  S
C291        H293   1.087       .  S
C294        C295   1.355       .  D
C294        H296   1.087       .  S
C295        H297   1.084       .  S
C298        C299   1.348       .  D
C298        H300   1.088       .  S
C299        H301   1.086       .  S
C302        C303   1.343       .  D
C302        H304   1.087       .  S
C303        H305   1.087       .  S
C306        C307   1.346       .  D
C306        H308   1.087       .  S
C307        H309   1.087       .  S
C310        C311   1.360       .  D
C310        H312   1.086       .  S
C311        H313   1.087       .  S
C314        C315   1.346       .  D
C314        H316   1.087       .  S
C315        H317   1.087       .  S
C318        C319   1.348       .  D
C318        H320   1.083       .  S
C319        H321   1.087       .  S
C322        C323   1.349       .  D
C322        H324   1.086       .  S
C323        H325   1.087       .  S
C326        C327   1.349       .  D
C326        H328   1.087       .  S
C327        H329   1.087       .  S
C330        C331   1.344       .  D
C330        H332   1.088       .  S
C331        H333   1.087       .  S
C334        C335   1.362       .  D
C334        H336   1.086       .  S
C335        H337   1.081       .  S
C338        C339   1.352       .  D
C338        H340   1.087       .  S
C339        H341   1.085       .  S
C342        C343   1.350       .  D
C342        H344   1.088       .  S
C343        H345   1.086       .  S
C346        C347   1.355       .  D
C346        H348   1.086       .  S
C347        H349   1.082       .  S
C350        C351   1.363       .  D
C350        H352   1.085       .  S
C351        H353   1.086       .  S
C354        C355   1.204       .  T
C356        C357   1.205       .  T
C358        C359   1.203       .  T
C360        C361   1.195       .  T
C362        C363   1.203       .  T
C364        C365   1.194       .  T
C366        C367   1.199       .  T
C368        C369   1.195       .  T
