geometry optimzed in LAMMPS
_audit_creation_date              2020-12-01 
_audit_creation_method            'lammps2cif' 
_symmetry_space_group_name_H-M    'P1' 
_symmetry_Int_Tables_number       1 
_symmetry_cell_setting            triclinic 
loop_ 
_symmetry_equiv_pos_as_xyz 
  x,y,z 
_cell_length_a                    30.31858709 
_cell_length_b                    30.447585977410125 
_cell_length_c                    39.06138128272011 
_cell_angle_alpha                 89.759881191693 
_cell_angle_beta                  89.84331598388371 
_cell_angle_gamma                 120.09997107507132 
loop_ 
_atom_site_label 
_atom_site_type_symbol 
_atom_site_fract_x 
_atom_site_fract_y 
_atom_site_fract_z 
_atom_site_charge 
O1          O  0.66346524  0.69991389  0.34634048    -0.71800
O2          O  0.78281477  0.82993434  0.34833966    -0.72000
O3          O  0.70782005  0.78023354  0.30318952    -0.71800
O4          O  0.73975250  0.75093827  0.39163385    -0.71800
O5          O  0.78150416  0.71814817  0.36804849    -0.71800
O6          O  0.75204398  0.75006533  0.27972548    -0.71800
O7          O  0.82609977  0.79807698  0.32569476    -0.71800
O8          O  0.70620838  0.66866776  0.32216976    -0.72000
V9          V  0.72402367  0.76435597  0.34690766     1.35200
V10         V  0.76538025  0.73411297  0.32433892     1.35200
C11         C  0.66440308  0.66212132  0.33387348     0.77500
C12         C  0.82485879  0.83591535  0.33767566     0.77500
C13         C  0.72644499  0.77226041  0.27649906     0.77400
C14         C  0.76775841  0.73132603  0.39487276     0.77400
O15         O  0.28954695  0.32748062  0.31854807    -0.71800
O16         O  0.16065728  0.20647300  0.32347746    -0.72000
O17         O  0.21239128  0.28549386  0.36516428    -0.71800
O18         O  0.23661709  0.24762200  0.27713237    -0.71800
O19         O  0.27567157  0.21226868  0.30102221    -0.71800
O20         O  0.24435083  0.24333169  0.38911986    -0.71800
O21         O  0.19691117  0.16661099  0.34500559    -0.71800
O22         O  0.32374702  0.29010822  0.34540187    -0.72000
V23         V  0.22565556  0.26623436  0.32155980     1.35200
V24         V  0.25969309  0.22897490  0.34464181     1.35200
C25         C  0.32894607  0.32997198  0.33141543     0.77500
C26         C  0.15700429  0.16584870  0.33481806     0.77500
C27         C  0.22205840  0.26882997  0.39220396     0.77400
C28         C  0.25968008  0.22284482  0.27406090     0.77400
O29         O  0.96661642  0.67251333  0.68251319    -0.71800
O30         O  0.96957831  0.79864059  0.68228848    -0.72000
O31         O  0.92844853  0.71697735  0.64180551    -0.71800
O32         O  0.00859865  0.75564521  0.72313287    -0.71800
O33         O  0.07758869  0.78972169  0.69214046    -0.71800
O34         O  0.99722998  0.75052667  0.61109918    -0.71800
O35         O  0.03842458  0.83196076  0.65114228    -0.71800
O36         O  0.03612899  0.70601397  0.65249807    -0.72000
V37         V  0.96966994  0.73637884  0.68188109     1.35200
V38         V  0.03597367  0.76852340  0.65229263     1.35200
C39         C  0.00089055  0.66747278  0.66768192     0.77500
C40         C  0.00431177  0.83664506  0.66651300     0.77500
C41         C  0.94910576  0.72952532  0.61248251     0.77400
C42         C  0.05683046  0.78128113  0.72139773     0.77400
O43         O  0.04150601  0.33278688  0.68886614    -0.71800
O44         O  0.04781985  0.21085222  0.68411979    -0.72000
O45         O  0.08418625  0.29575939  0.64539109    -0.71800
O46         O  0.00660373  0.24813809  0.72754666    -0.71800
O47         O  0.93656273  0.21620598  0.69827455    -0.71800
O48         O  0.01518527  0.25647322  0.61577209    -0.71800
O49         O  0.97652364  0.17528067  0.65646783    -0.71800
O50         O  0.97512637  0.29881667  0.65639240    -0.72000
V51         V  0.04378862  0.27141031  0.68590869     1.35200
V52         V  0.97708990  0.23756004  0.65738065     1.35200
C53         C  0.00771428  0.33710274  0.67265945     0.77500
C54         C  0.01244410  0.17176161  0.66984817     0.77500
C55         C  0.06338103  0.28257597  0.61637691     0.77400
C56         C  0.95848433  0.22324787  0.72697215     0.77400
O57         O  0.66747958  0.96949255  0.98574328    -0.71800
O58         O  0.78774514  0.95952169  0.98661219    -0.72000
O59         O  0.70513635  0.92533863  0.02769287    -0.71800
O60         O  0.75085634  0.00368603  0.94542609    -0.71800
O61         O  0.78198672  0.07231967  0.97517405    -0.71800
O62         O  0.75005467  0.99356067  0.05691781    -0.71800
O63         O  0.82784683  0.03221516  0.01224132    -0.71800
O64         O  0.70360659  0.03408398  0.01992620    -0.72000
V65         V  0.72826883  0.96566681  0.98695645     1.35200
V66         V  0.76501968  0.03176721  0.01556783     1.35200
C67         C  0.66488812  0.00313252  0.00307135     0.77500
C68         C  0.82889625  0.99519708  0.99849432     0.77500
C69         C  0.72193978  0.94574590  0.05649365     0.77400
C70         C  0.77429459  0.05170096  0.94609386     0.77400
O71         O  0.29393451  0.96991566  0.01518447    -0.71800
O72         O  0.16823218  0.96884172  0.01259605    -0.72000
O73         O  0.21178874  0.92851200  0.97385825    -0.71800
O74         O  0.24902204  0.01024161  0.05386913    -0.71800
O75         O  0.28479938  0.07827803  0.02250575    -0.71800
O76         O  0.24659981  0.99663219  0.94226462    -0.71800
O77         O  0.20326606  0.03709761  0.98099409    -0.71800
O78         O  0.32882778  0.03792560  0.98341970    -0.72000
V79         V  0.23166533  0.97072196  0.01327724     1.35200
V80         V  0.26536913  0.03617282  0.98292002     1.35200
C81         C  0.33278725  0.00412233  0.99969444     0.77500
C82         C  0.16441448  0.00266229  0.99627410     0.77500
C83         C  0.22128124  0.94866362  0.94438780     0.77400
C84         C  0.27189535  0.05816961  0.05200203     0.77400
C85         C  0.11549748  0.00167731  0.99520441     0.01400
C86         C  0.09462838  0.00861084  0.02557736     0.04200
C87         C  0.04704781  0.00601191  0.02488189    -0.11900
C88         C  0.01968897  0.99515981  0.99401336     0.23500
C89         C  0.04017862  0.98742132  0.96375498    -0.12500
C90         C  0.08872063  0.99210910  0.96413698     0.04900
C91         C  0.97029193  0.99396697  0.99326980     0.27300
C92         C  0.92520160  0.94969540  0.00303409    -0.13100
C93         C  0.87891102  0.94987417  0.00477268     0.05400
C94         C  0.87730346  0.99419608  0.99602563    -0.09100
C95         C  0.92257627  0.03793622  0.98498715     0.06200
C96         C  0.96892596  0.03792273  0.98400425    -0.13500
Br97       Br  0.00108455  0.96929737  0.92207304    -0.05500
Br98       Br  0.13232460  0.02399250  0.06782394     0.00100
Br99       Br  0.81898192  0.89004542  0.02127899     0.00500
Br100      Br  0.03110939  0.09833812  0.97027449    -0.03900
Br101      Br  0.11828725  0.98533039  0.92209876     0.00600
Br102      Br  0.01925760  0.01760763  0.06611477    -0.03200
Br103      Br  0.92748471  0.88907758  0.01440163    -0.04000
Br104      Br  0.92157604  0.09750922  0.96941902    -0.00100
C105        C  0.61778246  0.00635876  0.00330653     0.01400
C106        C  0.60251785  0.02130462  0.97344637     0.04200
C107        C  0.55690009  0.02293142  0.97331688    -0.11900
C108        C  0.52581886  0.00865180  0.00281614     0.23500
C109        C  0.54145781  0.99463713  0.03285569    -0.12500
C110        C  0.58762534  0.99405477  0.03321053     0.04900
C111        C  0.47625103  0.00751600  0.00205228     0.27300
C112        C  0.47311081  0.04985535  0.01309539    -0.13100
C113        C  0.42604977  0.04856420  0.01254580     0.05400
C114        C  0.38192773  0.00497900  0.00071989    -0.09100
C115        C  0.38514007  0.96264961  0.98952664     0.06200
C116        C  0.43222778  0.96396395  0.99021284    -0.13500
Br117      Br  0.49902394  0.97559574  0.07331673    -0.05500
Br118      Br  0.64488830  0.04120771  0.93301104     0.00100
Br119      Br  0.42167196  0.10575645  0.02950383     0.00500
Br120      Br  0.43684739  0.90632832  0.97462961    -0.03900
Br121      Br  0.60880019  0.97501990  0.07441010     0.00600
Br122      Br  0.53684441  0.04511834  0.93290867    -0.03200
Br123      Br  0.53352714  0.10964797  0.02886119    -0.04000
Br124      Br  0.32565474  0.90368001  0.97174958    -0.00100
C125        C  0.92922896  0.20095420  0.75910951     0.01400
C126        C  0.94072910  0.16975690  0.77978013     0.04200
C127        C  0.91355654  0.14855126  0.81041515    -0.11900
C128        C  0.87457322  0.15807056  0.82062097     0.23500
C129        C  0.86298469  0.18914119  0.80017916    -0.12500
C130        C  0.89022351  0.21055254  0.76950755     0.04900
C131        C  0.84498484  0.13395885  0.85243746     0.27300
C132        C  0.80092560  0.08584179  0.85096636    -0.13100
C133        C  0.77558400  0.06028395  0.88129578     0.05400
C134        C  0.79473378  0.08261689  0.91380940    -0.09100
C135        C  0.83661432  0.13337684  0.91469340     0.06200
C136        C  0.86202223  0.15817454  0.88414943    -0.13500
Br137      Br  0.80959683  0.20206484  0.81444304    -0.05500
Br138      Br  0.99187824  0.15344851  0.76549893     0.00100
Br139      Br  0.71345034  0.99560204  0.87692549     0.00500
Br140      Br  0.92188563  0.22502189  0.88548449    -0.03900
Br141      Br  0.87539275  0.25470456  0.74267819     0.00600
Br142      Br  0.92903529  0.10562628  0.83844967    -0.03200
Br143      Br  0.77647858  0.05450890  0.80689023    -0.04000
Br144      Br  0.86112673  0.17090750  0.95690201    -0.00100
C145        C  0.08792761  0.80390466  0.75266568     0.01400
C146        C  0.11670743  0.85724695  0.75607837     0.04200
C147        C  0.13934870  0.87910585  0.78768701    -0.11900
C148        C  0.13718105  0.84798250  0.81533353     0.23500
C149        C  0.11269597  0.79492541  0.81074916    -0.12500
C150        C  0.08693699  0.77297284  0.77996387     0.04900
C151        C  0.15946518  0.87072530  0.84933050     0.27300
C152        C  0.21281538  0.90016886  0.85358965    -0.13100
C153        C  0.23332118  0.92485806  0.88492265     0.05400
C154        C  0.20090415  0.91747974  0.91302057    -0.09100
C155        C  0.14794038  0.88360445  0.90981115     0.06200
C156        C  0.12714133  0.86264889  0.87767483    -0.13500
Br157      Br  0.11486172  0.75232493  0.84670181    -0.05500
Br158      Br  0.12508378  0.90085055  0.71759775     0.00100
Br159      Br  0.30615405  0.96712650  0.88984009     0.00500
Br160      Br  0.05398932  0.82508883  0.87214980    -0.03900
Br161      Br  0.05244290  0.70057880  0.77470034     0.00600
Br162      Br  0.17133934  0.95168977  0.79343211    -0.03200
Br163      Br  0.25785440  0.90636534  0.81653873    -0.04000
Br164      Br  0.10314745  0.86608166  0.94908589    -0.00100
C165        C  0.99999398  0.61785145  0.66821382     0.01400
C166        C  0.98020319  0.58450700  0.69692287     0.04200
C167        C  0.98314189  0.53975937  0.69815778    -0.11900
C168        C  0.00283882  0.52607288  0.67014366     0.23500
C169        C  0.01970193  0.55723307  0.64078820    -0.12500
C170        C  0.01922696  0.60326894  0.63993985     0.04900
C171        C  0.00411690  0.47784470  0.67105332     0.27300
C172        C  0.05006114  0.47852727  0.67754425    -0.13100
C173        C  0.05177569  0.43310208  0.67695801     0.05400
C174        C  0.00639778  0.38568737  0.67228669    -0.09100
C175        C  0.95996089  0.38549532  0.66633928     0.06200
C176        C  0.95940763  0.43146973  0.66485166    -0.13500
Br177      Br  0.04205683  0.53558244  0.60122099    -0.05500
Br178      Br  0.94826751  0.59814991  0.73507821     0.00100
Br179      Br  0.11779673  0.43803730  0.67960522     0.00500
Br180      Br  0.89728302  0.43152527  0.65378574    -0.03900
Br181      Br  0.04217359  0.64380802  0.59861354     0.00600
Br182      Br  0.96024486  0.49663859  0.73840184    -0.03200
Br183      Br  0.11084730  0.54233962  0.68722371    -0.04000
Br184      Br  0.89565398  0.32320567  0.66093517    -0.00100
C185        C  0.01218791  0.12273306  0.66874273     0.01400
C186        C  0.96521727  0.07606245  0.66999496     0.04200
C187        C  0.96462089  0.02971750  0.66746473    -0.11900
C188        C  0.01060797  0.02919344  0.66535472     0.23500
C189        C  0.05737895  0.07506435  0.66469947    -0.12500
C190        C  0.05828690  0.12173991  0.66557341     0.04900
C191        C  0.00960791  0.98006926  0.66543205     0.27300
C192        C  0.00554080  0.95526404  0.69676366    -0.13100
C193        C  0.00278040  0.90781031  0.69715031     0.05400
C194        C  0.00524697  0.88551366  0.66611185    -0.09100
C195        C  0.00919495  0.91038233  0.63468063     0.06200
C196        C  0.01116193  0.95753536  0.63437785    -0.13500
Br197      Br  0.12021858  0.07341663  0.66297566    -0.05500
Br198      Br  0.90097093  0.07386594  0.67720738     0.00100
Br199      Br  0.99709070  0.87447000  0.74047471     0.00500
Br200      Br  0.01516567  0.99109018  0.59148999    -0.03900
Br201      Br  0.12301084  0.18340997  0.66032148     0.00600
Br202      Br  0.90066603  0.96624029  0.66717007    -0.03200
Br203      Br  0.00405464  0.98682899  0.73918673    -0.04000
Br204      Br  0.00887310  0.87865918  0.59184567    -0.00100
C205        C  0.20548090  0.27691565  0.42646360     0.01400
C206        C  0.21460431  0.32548706  0.43614586     0.04200
C207        C  0.19563509  0.33211840  0.46759218    -0.11900
C208        C  0.16686134  0.29027886  0.48944522     0.23500
C209        C  0.15844415  0.24199058  0.48023046    -0.12500
C210        C  0.17800220  0.23530241  0.44910764     0.04900
C211        C  0.14397748  0.29629291  0.52172520     0.27300
C212        C  0.16930848  0.30363480  0.55311999    -0.13100
C213        C  0.14484942  0.30274884  0.58416315     0.05400
C214        C  0.09422064  0.29442804  0.58396677    -0.09100
C215        C  0.07158261  0.29294071  0.55188787     0.06200
C216        C  0.09584718  0.29261032  0.52111560    -0.13500
Br217      Br  0.11847154  0.18458298  0.51008557    -0.05500
Br218      Br  0.25476726  0.38360743  0.40706767     0.00100
Br219      Br  0.18214642  0.31232067  0.62616975     0.00500
Br220      Br  0.06256244  0.28559267  0.47777788    -0.03900
Br221      Br  0.16420307  0.16805532  0.43715997     0.00600
Br222      Br  0.20858741  0.39845943  0.48093787    -0.03200
Br223      Br  0.23750315  0.31374639  0.55329056    -0.04000
Br224      Br  0.00864385  0.29437835  0.54916009    -0.00100
C225        C  0.26580759  0.20453941  0.23998163     0.01400
C226        C  0.22288994  0.17649567  0.21881561     0.04200
C227        C  0.22736828  0.15387469  0.18853076    -0.11900
C228        C  0.27521021  0.16129752  0.17798777     0.23500
C229        C  0.31858077  0.19155734  0.19809228    -0.12500
C230        C  0.31382349  0.21255077  0.22911869     0.04900
C231        C  0.27976976  0.13799457  0.14544725     0.27300
C232        C  0.28513384  0.09461960  0.14629566    -0.13100
C233        C  0.28784893  0.07182588  0.11557325     0.05400
C234        C  0.28055701  0.08931941  0.08355662    -0.09100
C235        C  0.27655933  0.13383773  0.08280069     0.06200
C236        C  0.27746950  0.15856548  0.11354660    -0.13500
Br237      Br  0.38469758  0.20464467  0.18278005    -0.05500
Br238      Br  0.15726255  0.16784562  0.23124901     0.00100
Br239      Br  0.30486536  0.01863424  0.11769546     0.00500
Br240      Br  0.27406641  0.22024267  0.11229251    -0.03900
Br241      Br  0.37387941  0.25503071  0.25556430     0.00600
Br242      Br  0.16745795  0.11124780  0.16180836    -0.03200
Br243      Br  0.28612647  0.06474042  0.18976090    -0.04000
Br244      Br  0.26656006  0.16039407  0.04033562    -0.00100
C245        C  0.91819694  0.72293656  0.58080545     0.01400
C246        C  0.93579495  0.71829150  0.54798057     0.04200
C247        C  0.90976525  0.71835053  0.51801810    -0.11900
C248        C  0.86454912  0.72053745  0.52026571     0.23500
C249        C  0.84569257  0.72322930  0.55268090    -0.12500
C250        C  0.87266502  0.72559410  0.58269330     0.04900
C251        C  0.83797024  0.72253761  0.48856860     0.27300
C252        C  0.84369171  0.76923447  0.47736336    -0.13100
C253        C  0.81712463  0.77125394  0.44838490     0.05400
C254        C  0.78735189  0.72710418  0.42884500    -0.09100
C255        C  0.78121949  0.68029475  0.44020903     0.06200
C256        C  0.80599892  0.67792535  0.47014777    -0.13500
Br257      Br  0.78312004  0.72535702  0.55561433    -0.05500
Br258      Br  0.99488878  0.71054294  0.54302789     0.00100
Br259      Br  0.82272961  0.83515561  0.43537416     0.00500
Br260      Br  0.79670830  0.61366460  0.48579805    -0.03900
Br261      Br  0.84804735  0.73700730  0.62557333     0.00600
Br262      Br  0.93710595  0.71760865  0.47342954    -0.03200
Br263      Br  0.89003792  0.83098426  0.50094706    -0.04000
Br264      Br  0.73657508  0.61899173  0.41567499    -0.00100
C265        C  0.87172718  0.88573118  0.33957545     0.01400
C266        C  0.91446586  0.89042592  0.35716002     0.04200
C267        C  0.95893664  0.93805341  0.35957451    -0.11900
C268        C  0.96282426  0.97997446  0.34143849     0.23500
C269        C  0.92063853  0.97499062  0.32301661    -0.12500
C270        C  0.87437633  0.92854715  0.32342035     0.04900
C271        C  0.01240220  0.02802137  0.33973570     0.27300
C272        C  0.01961812  0.07128070  0.35755590    -0.13100
C273        C  0.06640026  0.11702823  0.35488947     0.05400
C274        C  0.10721513  0.11862954  0.33631614    -0.09100
C275        C  0.10034947  0.07487136  0.31932050     0.06200
C276        C  0.05252633  0.03024036  0.32005741    -0.13500
Br277      Br  0.92718009  0.03091005  0.29562048    -0.05500
Br278      Br  0.91285396  0.83178659  0.37772011     0.00100
Br279      Br  0.07462499  0.17698993  0.37746630     0.00500
Br280      Br  0.04142709  0.97225463  0.29340914    -0.03900
Br281      Br  0.81570633  0.92335890  0.30030995     0.00600
Br282      Br  0.01484146  0.94589134  0.38753828    -0.03200
Br283      Br  0.96577751  0.06746777  0.38620520    -0.04000
Br284      Br  0.15580950  0.07607332  0.29411008    -0.00100
C285        C  0.61763426  0.61148212  0.33326114     0.01400
C286        C  0.60240242  0.58269192  0.30281836     0.04200
C287        C  0.55633406  0.53591591  0.30202745    -0.11900
C288        C  0.52581184  0.51726589  0.33169445     0.23500
C289        C  0.54222082  0.54454745  0.36247990    -0.12500
C290        C  0.58756987  0.59184576  0.36320872     0.04900
C291        C  0.47586371  0.46937965  0.33048199     0.27300
C292        C  0.43121004  0.47103412  0.32383504    -0.13100
C293        C  0.38330214  0.42607346  0.32421788     0.05400
C294        C  0.37979131  0.37817221  0.33028423    -0.09100
C295        C  0.42579509  0.37710798  0.33553196     0.06200
C296        C  0.47312076  0.42260543  0.33643601    -0.13500
Br297      Br  0.50274400  0.51620788  0.40380919    -0.05500
Br298      Br  0.64299600  0.60790626  0.26158166     0.00100
Br299      Br  0.32377146  0.43283466  0.31732554     0.00500
Br300      Br  0.53505461  0.42157694  0.34625860    -0.03900
Br301      Br  0.60911384  0.62853319  0.40579333     0.00600
Br302      Br  0.53448520  0.49713158  0.26030970    -0.03200
Br303      Br  0.43637103  0.53587708  0.31438502    -0.04000
Br304      Br  0.42678085  0.31429488  0.33988849    -0.00100
C305        C  0.72111255  0.79156687  0.24269906     0.01400
C306        C  0.76518442  0.82567541  0.22386663     0.04200
C307        C  0.76076609  0.84900457  0.19387156    -0.11900
C308        C  0.71235966  0.83747119  0.18187676     0.23500
C309        C  0.66826700  0.80237790  0.20002905    -0.12500
C310        C  0.67260163  0.77953203  0.23037826     0.04900
C311        C  0.70831290  0.86243979  0.15007253     0.27300
C312        C  0.71239148  0.91044155  0.15170507    -0.13100
C313        C  0.71512323  0.93711192  0.12139467     0.05400
C314        C  0.71159908  0.91487564  0.08878215    -0.09100
C315        C  0.70226720  0.86413337  0.08772085     0.06200
C316        C  0.70270619  0.83916161  0.11814069    -0.13500
Br317      Br  0.60208656  0.78660546  0.18347963    -0.05500
Br318      Br  0.83219645  0.84254256  0.23960126     0.00100
Br319      Br  0.72264425  0.00375713  0.12586967     0.00500
Br320      Br  0.69789815  0.77347740  0.11632112    -0.03900
Br321      Br  0.61196980  0.73006281  0.25427853     0.00600
Br322      Br  0.82120718  0.89826440  0.16956403    -0.03200
Br323      Br  0.71507867  0.93972116  0.19598079    -0.04000
Br324      Br  0.68902649  0.82709861  0.04536737    -0.00100
loop_ 
_geom_bond_atom_site_label_1 
_geom_bond_atom_site_label_2 
_geom_bond_distance 
_geom_bond_site_symmetry_2 
_ccdc_geom_bond_type 
O1            V9   1.900       .  S
O1           C11   1.265       .  A
O2            V9   1.897       .  S
O2           C12   1.263       .  A
O3            V9   1.905       .  S
O3           C13   1.265       .  A
O4            V9   1.908       .  S
O4           C14   1.266       .  A
O5           V10   1.904       .  S
O5           C14   1.265       .  A
O6           V10   1.905       .  S
O6           C13   1.265       .  A
O7           V10   1.895       .  S
O7           C12   1.263       .  A
O8           V10   1.901       .  S
O8           C11   1.264       .  A
V9           V10   2.087       .  T
C11         C285   1.482       .  S
C12         C265   1.471       .  S
C13         C305   1.485       .  S
C14         C254   1.487       .  S
O15          V23   1.902       .  S
O15          C25   1.264       .  A
O16          V23   1.898       .  S
O16          C26   1.263       .  A
O17          V23   1.910       .  S
O17          C27   1.267       .  A
O18          V23   1.907       .  S
O18          C28   1.266       .  A
O19          V24   1.910       .  S
O19          C28   1.267       .  A
O20          V24   1.906       .  S
O20          C27   1.265       .  A
O21          V24   1.898       .  S
O21          C26   1.264       .  A
O22          V24   1.901       .  S
O22          C25   1.264       .  A
V23          V24   2.082       .  T
C25         C294   1.504       .  S
C26         C274   1.473       .  S
C27         C205   1.492       .  S
C28         C225   1.492       .  S
O29          V37   1.900       .  S
O29          C39   1.263   1_655  A
O30          V37   1.897       .  S
O30          C40   1.263   1_655  A
O31          V37   1.908       .  S
O31          C41   1.266       .  A
O32          V37   1.912   1_455  S
O32          C42   1.267       .  A
O33          V38   1.906       .  S
O33          C42   1.265       .  A
O34          V38   1.908   1_655  S
O34          C41   1.267       .  A
O35          V38   1.896       .  S
O35          C40   1.263       .  A
O36          V38   1.906       .  S
O36          C39   1.266       .  A
V37          V38   2.083   1_655  T
C39         C165   1.497   1_455  S
C40         C194   1.474       .  S
C41         C245   1.506       .  S
C42         C145   1.489       .  S
O43          V51   1.908       .  S
O43          C53   1.267       .  A
O44          V51   1.910       .  S
O44          C54   1.267       .  A
O45          V51   1.904       .  S
O45          C55   1.264       .  A
O46          V51   1.897       .  S
O46          C56   1.263   1_455  A
O47          V52   1.914       .  S
O47          C56   1.268       .  A
O48          V52   1.903   1_455  S
O48          C55   1.266       .  A
O49          V52   1.888       .  S
O49          C54   1.261   1_655  A
O50          V52   1.896       .  S
O50          C53   1.262   1_655  A
V51          V52   2.080   1_455  T
C53         C174   1.500       .  S
C54         C185   1.490       .  S
C55         C214   1.503       .  S
C56         C125   1.485       .  S
O57          V65   1.905       .  S
O57          C67   1.265   1_566  A
O58          V65   1.904       .  S
O58          C68   1.265       .  A
O59          V65   1.909   1_554  S
O59          C69   1.266       .  A
O60          V65   1.904   1_545  S
O60          C70   1.265       .  A
O61          V66   1.903   1_556  S
O61          C70   1.265       .  A
O62          V66   1.902   1_565  S
O62          C69   1.266       .  A
O63          V66   1.902       .  S
O63          C68   1.265   1_544  A
O64          V66   1.906       .  S
O64          C67   1.265       .  A
V65          V66   2.078   1_566  T
C67         C105   1.480       .  S
C68          C94   1.486       .  S
C69         C314   1.505       .  S
C70         C134   1.504       .  S
O71          V79   1.902       .  S
O71          C81   1.264   1_564  A
O72          V79   1.895       .  S
O72          C82   1.263   1_564  A
O73          V79   1.905   1_556  S
O73          C83   1.265       .  A
O74          V79   1.904   1_545  S
O74          C84   1.265       .  A
O75          V80   1.909   1_554  S
O75          C84   1.268       .  A
O76          V80   1.905   1_565  S
O76          C83   1.266       .  A
O77          V80   1.899       .  S
O77          C82   1.263       .  A
O78          V80   1.898       .  S
O78          C81   1.264       .  A
V79          V80   2.086   1_564  T
C81         C114   1.478   1_556  S
C82          C85   1.469       .  S
C83         C154   1.487       .  S
C84         C234   1.500       .  S
C85          C86   1.409   1_556  A
C85          C90   1.410   1_545  A
C86          C87   1.405       .  A
C86         Br98   1.931       .  S
C87          C88   1.409   1_544  A
C87        Br102   1.930       .  S
C88          C91   1.480   1_455  S
C88          C89   1.408       .  A
C89          C90   1.406       .  A
C89         Br97   1.929       .  S
C90        Br101   1.929       .  S
C91          C92   1.406   1_556  A
C91          C96   1.406   1_565  A
C92          C93   1.408       .  A
C92        Br103   1.931       .  S
C93          C94   1.415   1_554  A
C93         Br99   1.923       .  S
C94          C95   1.415   1_565  A
C95          C96   1.406       .  A
C95        Br104   1.925       .  S
C96        Br100   1.932   1_655  S
C105        C106   1.411   1_554  A
C105        C110   1.410   1_545  A
C106        C107   1.409       .  A
C106       Br118   1.927       .  S
C107        C108   1.408   1_556  A
C107       Br122   1.930       .  S
C108        C111   1.486       .  S
C108        C109   1.409   1_545  A
C109        C110   1.409       .  A
C109       Br117   1.929       .  S
C110       Br121   1.926       .  S
C111        C112   1.409       .  A
C111        C116   1.410   1_544  A
C112        C113   1.408       .  A
C112       Br123   1.929       .  S
C113        C114   1.411       .  A
C113       Br119   1.931       .  S
C114        C115   1.411   1_544  A
C115        C116   1.408       .  A
C115       Br124   1.931       .  S
C116       Br120   1.930       .  S
C125        C126   1.415       .  A
C125        C130   1.412       .  A
C126        C127   1.408       .  A
C126       Br138   1.932       .  S
C127        C128   1.408       .  A
C127       Br142   1.932       .  S
C128        C131   1.488       .  S
C128        C129   1.409       .  A
C129        C130   1.411       .  A
C129       Br137   1.929       .  S
C130       Br141   1.925       .  S
C131        C132   1.404       .  A
C131        C136   1.405       .  A
C132        C133   1.410       .  A
C132       Br143   1.933       .  S
C133        C134   1.424       .  A
C133       Br139   1.934   1_545  S
C134        C135   1.426       .  A
C135        C136   1.411       .  A
C135       Br144   1.936       .  S
C136       Br140   1.933       .  S
C145        C146   1.413       .  A
C145        C150   1.410       .  A
C146        C147   1.411       .  A
C146       Br158   1.931       .  S
C147        C148   1.413       .  A
C147       Br162   1.931       .  S
C148        C151   1.498       .  S
C148        C149   1.412       .  A
C149        C150   1.411       .  A
C149       Br157   1.931       .  S
C150       Br161   1.920       .  S
C151        C152   1.413       .  A
C151        C156   1.413       .  A
C152        C153   1.412       .  A
C152       Br163   1.930       .  S
C153        C154   1.411       .  A
C153       Br159   1.930       .  S
C154        C155   1.414       .  A
C155        C156   1.410       .  A
C155       Br164   1.933       .  S
C156       Br160   1.932       .  S
C165        C166   1.423       .  A
C165        C170   1.420   1_655  A
C166        C167   1.410       .  A
C166       Br178   1.932       .  S
C167        C168   1.406   1_655  A
C167       Br182   1.934       .  S
C168        C171   1.489       .  S
C168        C169   1.406       .  A
C169        C170   1.409       .  A
C169       Br177   1.932       .  S
C170       Br181   1.931       .  S
C171        C172   1.406       .  A
C171        C176   1.405   1_455  A
C172        C173   1.410       .  A
C172       Br183   1.932       .  S
C173        C174   1.422       .  A
C173       Br179   1.934       .  S
C174        C175   1.425   1_455  A
C175        C176   1.409       .  A
C175       Br184   1.934       .  S
C176       Br180   1.934       .  S
C185        C186   1.421   1_455  A
C185        C190   1.418       .  A
C186        C187   1.406       .  A
C186       Br198   1.935       .  S
C187        C188   1.405   1_655  A
C187       Br202   1.933   1_545  S
C188        C191   1.481   1_545  S
C188        C189   1.405       .  A
C189        C190   1.408       .  A
C189       Br197   1.932       .  S
C190       Br201   1.928       .  S
C191        C192   1.408       .  A
C191        C196   1.408       .  A
C192        C193   1.405       .  A
C192       Br203   1.931       .  S
C193        C194   1.412       .  A
C193       Br199   1.932   1_455  S
C194        C195   1.413       .  A
C195        C196   1.407       .  A
C195       Br204   1.933       .  S
C196       Br200   1.930       .  S
C205        C206   1.415       .  A
C205        C210   1.418       .  A
C206        C207   1.412       .  A
C206       Br218   1.928       .  S
C207        C208   1.409       .  A
C207       Br222   1.929       .  S
C208        C211   1.493       .  S
C208        C209   1.409       .  A
C209        C210   1.411       .  A
C209       Br217   1.932       .  S
C210       Br221   1.933       .  S
C211        C212   1.407       .  A
C211        C216   1.407       .  A
C212        C213   1.413       .  A
C212       Br223   1.932       .  S
C213        C214   1.425       .  A
C213       Br219   1.934       .  S
C214        C215   1.420       .  A
C215        C216   1.410       .  A
C215       Br224   1.934       .  S
C216       Br220   1.930       .  S
C225        C226   1.415       .  A
C225        C230   1.414       .  A
C226        C227   1.411       .  A
C226       Br238   1.932       .  S
C227        C228   1.411       .  A
C227       Br242   1.931       .  S
C228        C231   1.498       .  S
C228        C229   1.411       .  A
C229        C230   1.413       .  A
C229       Br237   1.930       .  S
C230       Br241   1.927       .  S
C231        C232   1.410       .  A
C231        C236   1.410       .  A
C232        C233   1.411       .  A
C232       Br243   1.930       .  S
C233        C234   1.418       .  A
C233       Br239   1.932       .  S
C234        C235   1.420       .  A
C235        C236   1.413       .  A
C235       Br244   1.932       .  S
C236       Br240   1.932       .  S
C245        C246   1.422       .  A
C245        C250   1.424       .  A
C246        C247   1.414       .  A
C246       Br258   1.930       .  S
C247        C248   1.408       .  A
C247       Br262   1.932       .  S
C248        C251   1.497       .  S
C248        C249   1.407       .  A
C249        C250   1.413       .  A
C249       Br257   1.934       .  S
C250       Br261   1.934       .  S
C251        C252   1.411       .  A
C251        C256   1.412       .  A
C252        C253   1.410       .  A
C252       Br263   1.931       .  S
C253        C254   1.414       .  A
C253       Br259   1.932       .  S
C254        C255   1.411       .  A
C255        C256   1.413       .  A
C255       Br264   1.929       .  S
C256       Br260   1.928       .  S
C265        C266   1.411       .  A
C265        C270   1.411       .  A
C266        C267   1.404       .  A
C266       Br278   1.933       .  S
C267        C268   1.409       .  A
C267       Br282   1.931   1_655  S
C268        C271   1.482   1_665  S
C268        C269   1.410       .  A
C269        C270   1.406       .  A
C269       Br277   1.931   1_565  S
C270       Br281   1.932       .  S
C271        C272   1.410       .  A
C271        C276   1.410       .  A
C272        C273   1.407       .  A
C272       Br283   1.931   1_455  S
C273        C274   1.412       .  A
C273       Br279   1.932       .  S
C274        C275   1.410       .  A
C275        C276   1.405       .  A
C275       Br284   1.931       .  S
C276       Br280   1.933   1_545  S
C285        C286   1.415       .  A
C285        C290   1.414       .  A
C286        C287   1.409       .  A
C286       Br298   1.931       .  S
C287        C288   1.408       .  A
C287       Br302   1.930       .  S
C288        C291   1.486       .  S
C288        C289   1.407       .  A
C289        C290   1.407       .  A
C289       Br297   1.930       .  S
C290       Br301   1.932       .  S
C291        C292   1.405       .  A
C291        C296   1.403       .  A
C292        C293   1.410       .  A
C292       Br303   1.935       .  S
C293        C294   1.427       .  A
C293       Br299   1.936       .  S
C294        C295   1.427       .  A
C295        C296   1.409       .  A
C295       Br304   1.934       .  S
C296       Br300   1.933       .  S
C305        C306   1.415       .  A
C305        C310   1.412       .  A
C306        C307   1.409       .  A
C306       Br318   1.932       .  S
C307        C308   1.409       .  A
C307       Br322   1.932       .  S
C308        C311   1.491       .  S
C308        C309   1.410       .  A
C309        C310   1.411       .  A
C309       Br317   1.928       .  S
C310       Br321   1.929       .  S
C311        C312   1.405       .  A
C311        C316   1.405       .  A
C312        C313   1.411       .  A
C312       Br323   1.932       .  S
C313        C314   1.424       .  A
C313       Br319   1.934   1_565  S
C314        C315   1.425       .  A
C315        C316   1.412       .  A
C315       Br324   1.933       .  S
C316       Br320   1.933       .  S
