geometry optimzed in LAMMPS
_audit_creation_date              2020-12-01 
_audit_creation_method            'lammps2cif' 
_symmetry_space_group_name_H-M    'P1' 
_symmetry_Int_Tables_number       1 
_symmetry_cell_setting            triclinic 
loop_ 
_symmetry_equiv_pos_as_xyz 
  x,y,z 
_cell_length_a                    31.79817948 
_cell_length_b                    31.795925983700354 
_cell_length_c                    43.05657834766733 
_cell_angle_alpha                 90.00094910703677 
_cell_angle_beta                  89.99948196826449 
_cell_angle_gamma                 89.99912587512944 
loop_ 
_atom_site_label 
_atom_site_type_symbol 
_atom_site_fract_x 
_atom_site_fract_y 
_atom_site_fract_z 
_atom_site_charge 
O1          O  0.86844120  0.95522408  0.63488646    -0.69500
O2          O  0.81406406  0.84889437  0.62690869    -0.69800
O3          O  0.81772316  0.90823393  0.67117955    -0.69600
O4          O  0.86413463  0.89591805  0.59060392    -0.69600
O5          O  0.91919019  0.86519315  0.61021478    -0.69600
O6          O  0.87238374  0.87721226  0.69112747    -0.69600
O7          O  0.86914173  0.81830712  0.64658657    -0.69600
O8          O  0.92303976  0.92407826  0.65480994    -0.69700
V9          V  0.84216392  0.90152176  0.63131025     1.35200
V10         V  0.89488564  0.87186741  0.65033127     1.35200
C11         C  0.90522046  0.95743204  0.64592857     0.79700
C12         C  0.83258080  0.81562492  0.63539068     0.79700
C13         C  0.83683501  0.89433150  0.69471011     0.79600
C14         C  0.89929577  0.87832783  0.58672680     0.79600
O15         O  0.05363261  0.14034983  0.63483660    -0.69500
O16         O  0.15996802  0.19469855  0.62683706    -0.69800
O17         O  0.11292573  0.14462772  0.59054554    -0.69600
O18         O  0.10064158  0.19106789  0.67111551    -0.69600
O19         O  0.13164919  0.13640002  0.69106825    -0.69600
O20         O  0.14363908  0.08956574  0.61016041    -0.69600
O21         O  0.19054238  0.13961455  0.64652023    -0.69600
O22         O  0.08476573  0.08574363  0.65476326    -0.69700
V23         V  0.10733769  0.16661252  0.63124923     1.35200
V24         V  0.13697972  0.11388419  0.65027446     1.35200
C25         C  0.05141685  0.10357209  0.64588563     0.79700
C26         C  0.19323210  0.17617387  0.63531831     0.79700
C27         C  0.13050637  0.10945917  0.58667116     0.79600
C28         C  0.11454071  0.17195656  0.69464752     0.79600
O29         O  0.05359050  0.29966431  0.89256438    -0.69500
O30         O  0.15990013  0.24526524  0.90055580    -0.69800
O31         O  0.11286418  0.29532150  0.93686385    -0.69600
O32         O  0.10059328  0.24896129  0.85626785    -0.69600
O33         O  0.13163025  0.30363436  0.83634872    -0.69600
O34         O  0.14360456  0.35038956  0.91728229    -0.69600
O35         O  0.19050310  0.30035544  0.88090703    -0.69600
O36         O  0.08475137  0.35427596  0.87267024    -0.69700
V37         V  0.10728325  0.27337662  0.89614791     1.35200
V38         V  0.13695243  0.32611055  0.87715491     1.35200
C39         C  0.05139361  0.33645311  0.88153447     0.79700
C40         C  0.19317379  0.26378463  0.89209081     0.79700
C41         C  0.13045478  0.33048021  0.94075923     0.79600
C42         C  0.11451045  0.26808761  0.83274830     0.79600
O43         O  0.86850580  0.48488757  0.89262180    -0.69500
O44         O  0.81416189  0.59122900  0.90062651    -0.69800
O45         O  0.81778730  0.53189968  0.85634753    -0.69600
O46         O  0.86423479  0.54418358  0.93691313    -0.69600
O47         O  0.91929028  0.57489765  0.91729347    -0.69600
O48         O  0.87244789  0.56290911  0.83638989    -0.69600
O49         O  0.86923881  0.62180553  0.88093876    -0.69600
O50         O  0.92310535  0.51602118  0.87268980    -0.69700
V51         V  0.84224581  0.53859591  0.89621162     1.35200
V52         V  0.89496758  0.56823923  0.87718168     1.35200
C53         C  0.90527862  0.48267111  0.88156930     0.79700
C54         C  0.83268324  0.62449452  0.89214345     0.79700
C55         C  0.83689405  0.54579941  0.83281374     0.79600
C56         C  0.89940235  0.56176270  0.94078436     0.79600
O57         O  0.52397089  0.29967992  0.63488374    -0.69500
O58         O  0.41765682  0.24529352  0.62686553    -0.69800
O59         O  0.46470526  0.29535987  0.59057562    -0.69600
O60         O  0.47695605  0.24896552  0.67116098    -0.69600
O61         O  0.44591880  0.30363335  0.69109038    -0.69600
O62         O  0.43396379  0.35042295  0.61016651    -0.69600
O63         O  0.38705399  0.30037865  0.64652453    -0.69600
O64         O  0.49280887  0.35428620  0.65478731    -0.69700
V65         V  0.47027605  0.27339826  0.63128660     1.35200
V66         V  0.44060634  0.32612716  0.65028908     1.35200
C67         C  0.52616847  0.33646369  0.64592417     0.79700
C68         C  0.38438210  0.26381252  0.63533178     0.79700
C69         C  0.44711632  0.33052096  0.58668660     0.79600
C70         C  0.46303586  0.26808348  0.69468386     0.79600
O71         O  0.70910473  0.48485697  0.63492790    -0.69500
O72         O  0.76346274  0.59119348  0.62693121    -0.69800
O73         O  0.75981623  0.53186813  0.67121124    -0.69600
O74         O  0.71339920  0.54414826  0.59063623    -0.69600
O75         O  0.65833849  0.57486979  0.61024364    -0.69600
O76         O  0.70515179  0.56288734  0.69115700    -0.69600
O77         O  0.70838041  0.62177787  0.64660591    -0.69600
O78         O  0.65450164  0.51599958  0.65484882    -0.69700
V79         V  0.73537240  0.53856265  0.63134226     1.35200
V80         V  0.68264631  0.56821411  0.65036060     1.35200
C81         C  0.67232607  0.48264618  0.64597147     0.79700
C82         C  0.74494027  0.62446278  0.63540837     0.79700
C83         C  0.74070374  0.54577529  0.69474053     0.79600
C84         C  0.67823439  0.56173000  0.58675731     0.79600
O85         O  0.70912131  0.95522820  0.89262864    -0.69500
O86         O  0.76352400  0.84891492  0.90061960    -0.69800
O87         O  0.75983640  0.90823453  0.85633726    -0.69600
O88         O  0.71345444  0.89594173  0.93692352    -0.69600
O89         O  0.65840078  0.86519552  0.91732862    -0.69600
O90         O  0.70517601  0.87719517  0.83640463    -0.69600
O91         O  0.70844805  0.81830788  0.88095621    -0.69600
O92         O  0.65452238  0.92406324  0.87272235    -0.69700
V93         V  0.73541064  0.90153348  0.89621214     1.35200
V94         V  0.68268971  0.87186041  0.87720622     1.35200
C95         C  0.67233959  0.95742438  0.88159039     0.79700
C96         C  0.74501257  0.81563874  0.89214691     0.79700
C97         C  0.74071884  0.89432157  0.83281234     0.79600
C98         C  0.67830000  0.87834304  0.94081045     0.79600
O99         O  0.52392127  0.14033922  0.89259044    -0.69500
O100        O  0.41757727  0.19467104  0.90057948    -0.69800
O101        O  0.46462429  0.14461224  0.93687655    -0.69600
O102        O  0.47690769  0.19104380  0.85630484    -0.69600
O103        O  0.44591128  0.13636884  0.83635316    -0.69600
O104        O  0.43392518  0.08954195  0.91726223    -0.69600
O105        O  0.38701466  0.13957901  0.88089829    -0.69600
O106        O  0.49280163  0.08572538  0.87266340    -0.69700
V107        V  0.47021196  0.16659316  0.89617213     1.35200
V108        V  0.44058207  0.11385730  0.87714770     1.35200
C109        C  0.52614488  0.10356008  0.88154506     0.79700
C110        C  0.38431809  0.17613984  0.89209767     0.79700
C111        C  0.44705446  0.10943920  0.94075116     0.79600
C112        C  0.46301357  0.17192775  0.83277293     0.79600
O113        O  0.36853931  0.45508327  0.39255139    -0.69500
O114        O  0.31417258  0.34875581  0.40054636    -0.69800
O115        O  0.36423000  0.39579832  0.43684641    -0.69600
O116        O  0.31783657  0.40807349  0.35626324    -0.69600
O117        O  0.37250449  0.37704823  0.33632777    -0.69600
O118        O  0.41929316  0.36506959  0.41724889    -0.69600
O119        O  0.36925727  0.31816348  0.38088149    -0.69600
O120        O  0.42314646  0.42393470  0.37264112    -0.69700
V121        V  0.34226819  0.40138155  0.39613656     1.35200
V122        V  0.39499726  0.37172350  0.37712798     1.35200
C123        C  0.40531981  0.45728975  0.38151233     0.79700
C124        C  0.33269378  0.31548491  0.39207346     0.79700
C125        C  0.39939229  0.37821357  0.44073146     0.79600
C126        C  0.33695518  0.39416327  0.33273777     0.79600
O127        O  0.55366585  0.64024845  0.39259492    -0.69500
O128        O  0.65997423  0.69463580  0.40061561    -0.69800
O129        O  0.60068393  0.69095333  0.35631569    -0.69600
O130        O  0.61292317  0.64457663  0.43690757    -0.69600
O131        O  0.64366885  0.58951021  0.41732533    -0.69600
O132        O  0.63172443  0.63628141  0.33639511    -0.69600
O133        O  0.69058174  0.63954737  0.38096505    -0.69600
O134        O  0.58483077  0.58563731  0.37270056    -0.69700
V135        V  0.60735824  0.66652984  0.39619355     1.35200
V136        V  0.63703156  0.61379713  0.37719952     1.35200
C137        C  0.55147043  0.60346309  0.38155810     0.79700
C138        C  0.69324985  0.67611602  0.39215390     0.79700
C139        C  0.61460677  0.67182973  0.33279619     0.79600
C140        C  0.63051219  0.60941670  0.44080187     0.79600
O141        O  0.02404847  0.64028180  0.13492439    -0.69500
O142        O  0.91773704  0.69467631  0.12692104    -0.69800
O143        O  0.97703990  0.69099153  0.17121230    -0.69600
O144        O  0.96477832  0.64461419  0.09062132    -0.69600
O145        O  0.93403732  0.58954930  0.11020714    -0.69600
O146        O  0.94600299  0.63632155  0.19113608    -0.69600
O147        O  0.88713413  0.63958936  0.14657462    -0.69600
O148        O  0.99288734  0.58567340  0.15482298    -0.69700
V149        V  0.97035489  0.66656742  0.13133491     1.35200
V150        V  0.94068554  0.61383657  0.15033226     1.35200
C151        C  0.02624571  0.60349510  0.14595856     0.79700
C152        C  0.88446303  0.67615768  0.13538669     0.79700
C153        C  0.96312043  0.67187002  0.19473320     0.79600
C154        C  0.94718751  0.60945495  0.08672879     0.79600
O155        O  0.20913891  0.45506686  0.13486306    -0.69500
O156        O  0.26348114  0.34872495  0.12684460    -0.69800
O157        O  0.21339784  0.39577378  0.09056826    -0.69600
O158        O  0.25986903  0.40805129  0.17112680    -0.69600
O159        O  0.20521396  0.37704063  0.19109167    -0.69600
O160        O  0.15834824  0.36505747  0.11019502    -0.69600
O161        O  0.20840990  0.31814743  0.14654010    -0.69600
O162        O  0.15454515  0.42393133  0.15480199    -0.69700
V163        V  0.23539846  0.40135840  0.13126645     1.35200
V164        V  0.18268217  0.37171358  0.15030336     1.35200
C165        C  0.17236879  0.45728246  0.14592145     0.79700
C166        C  0.24496214  0.31545846  0.13532919     0.79700
C167        C  0.17823041  0.37819320  0.08670148     0.79600
C168        C  0.24076939  0.39414946  0.19466281     0.79600
O169        O  0.36851752  0.98471881  0.13486336    -0.69500
O170        O  0.31411462  0.09103091  0.12685379    -0.69800
O171        O  0.36420173  0.04400231  0.09056485    -0.69600
O172        O  0.31778324  0.03171472  0.17113962    -0.69600
O173        O  0.37243361  0.06275732  0.19108447    -0.69600
O174        O  0.41924565  0.07475203  0.11017172    -0.69600
O175        O  0.36918076  0.12164076  0.14652968    -0.69600
O176        O  0.42310627  0.01588729  0.15478170    -0.69700
V177        V  0.34222753  0.03841287  0.13127078     1.35200
V178        V  0.39493888  0.06808909  0.15028845     1.35200
C179        C  0.40529458  0.98252477  0.14591041     0.79700
C180        C  0.33262109  0.12430851  0.13532951     0.79700
C181        C  0.39935638  0.06160367  0.08668558     0.79600
C182        C  0.33688890  0.04563118  0.19466836     0.79600
O183        O  0.55371480  0.79961183  0.13490191    -0.69500
O184        O  0.66005622  0.74527597  0.12689948    -0.69800
O185        O  0.60072733  0.74889005  0.17117601    -0.69600
O186        O  0.61301074  0.79535070  0.09061362    -0.69600
O187        O  0.64371464  0.85041160  0.11023812    -0.69600
O188        O  0.63172710  0.80355605  0.19113814    -0.69600
O189        O  0.69062257  0.80035856  0.14659168    -0.69600
O190        O  0.58483862  0.85421640  0.15483894    -0.69700
V191        V  0.60742283  0.77335550  0.13131367     1.35200
V192        V  0.63705657  0.82608240  0.15034813     1.35200
C193        C  0.55149380  0.83638714  0.14595464     0.79700
C194        C  0.69331691  0.76380195  0.13538459     0.79700
C195        C  0.61462393  0.76799648  0.19471139     0.79600
C196        C  0.63058519  0.83052285  0.08674547     0.79600
O197        O  0.02395884  0.79964392  0.39263359    -0.69500
O198        O  0.91763831  0.74527701  0.40063892    -0.69800
O199        O  0.97696033  0.74891457  0.35635876    -0.69600
O200        O  0.96466930  0.79536121  0.43692628    -0.69600
O201        O  0.93394318  0.85041420  0.41730847    -0.69600
O202        O  0.94594185  0.80357462  0.33640337    -0.69600
O203        O  0.88705121  0.80035197  0.38095216    -0.69600
O204        O  0.99281479  0.85424282  0.37270480    -0.69700
V205        V  0.97026068  0.77337257  0.39622380     1.35200
V206        V  0.94060722  0.82609299  0.37719586     1.35200
C207        C  0.02616667  0.83641978  0.38158186     0.79700
C208        C  0.88437082  0.76379378  0.39215709     0.79700
C209        C  0.96305795  0.76802131  0.33282570     0.79600
C210        C  0.94708073  0.83052604  0.44079871     0.79600
O211        O  0.20912693  0.98476556  0.39257883    -0.69500
O212        O  0.26351564  0.09108389  0.40055949    -0.69800
O213        O  0.21343894  0.04406776  0.43686286    -0.69600
O214        O  0.25984861  0.03174896  0.35628704    -0.69600
O215        O  0.20519176  0.06277778  0.33633951    -0.69600
O216        O  0.15838801  0.07480171  0.41725257    -0.69600
O217        O  0.20844285  0.12168045  0.38088154    -0.69600
O218        O  0.15453119  0.01591838  0.37265658    -0.69700
V219        V  0.23540927  0.03846269  0.39615650     1.35200
V220        V  0.18269138  0.06812489  0.37713597     1.35200
C221        C  0.17234834  0.98256277  0.38153605     0.79700
C222        C  0.24500371  0.12435544  0.39207810     0.79700
C223        C  0.17828040  0.06166335  0.44074030     0.79600
C224        C  0.24073771  0.04565341  0.33275661     0.79600
C225        C  0.15012457  0.94326764  0.37992007    -0.16300
C226        C  0.12703557  0.91315261  0.37925829     0.07800
C227        C  0.09558553  0.88171225  0.37926992     0.09600
C228        C  0.06546485  0.85863281  0.37994995    -0.17100
C229        C  0.31774367  0.04295266  0.22479459    -0.16300
C230        C  0.29974747  0.04187290  0.24943506     0.07800
C231        C  0.27787333  0.04187674  0.27798833     0.09600
C232        C  0.25987933  0.04296403  0.30262947    -0.17100
C233        C  0.42752270  0.94323077  0.14754380    -0.16300
C234        C  0.45061444  0.91311712  0.14822514     0.07800
C235        C  0.48206711  0.88167606  0.14823765     0.09600
C236        C  0.51218991  0.85859639  0.14757470    -0.17100
C237        C  0.26491807  0.27509054  0.13258117    -0.16300
C238        C  0.28016639  0.24037206  0.13146404     0.07800
C239        C  0.29738843  0.19938116  0.13146462     0.09600
C240        C  0.31264506  0.16466652  0.13258243    -0.17100
C241        C  0.84410546  0.69613077  0.13264169    -0.16300
C242        C  0.80939188  0.71138486  0.13152510     0.07800
C243        C  0.76840212  0.72860370  0.13152460     0.09600
C244        C  0.73368464  0.74384921  0.13264051    -0.17100
C245        C  0.96574405  0.74886970  0.30270151    -0.16300
C246        C  0.96683580  0.73087049  0.27806158     0.07800
C247        C  0.96685128  0.70899533  0.24950808     0.09600
C248        C  0.96578400  0.69100335  0.22486481    -0.17100
C249        C  0.15016137  0.49658806  0.14755563    -0.16300
C250        C  0.12708530  0.52671399  0.14823596     0.07800
C251        C  0.09564917  0.55817136  0.14824596     0.09600
C252        C  0.06553826  0.58126657  0.14758077    -0.17100
C253        C  0.84401167  0.74382923  0.39490301    -0.16300
C254        C  0.80929929  0.72857432  0.39602055     0.07800
C255        C  0.76831536  0.71134723  0.39602069     0.09600
C256        C  0.73360456  0.69608878  0.39490273    -0.17100
C257        C  0.61194822  0.74883670  0.22483279    -0.16300
C258        C  0.61086897  0.73083154  0.24947011     0.07800
C259        C  0.61086766  0.70895222  0.27802138     0.09600
C260        C  0.61194303  0.69095995  0.30266383    -0.17100
C261        C  0.31272765  0.27512321  0.39481417    -0.16300
C262        C  0.29746953  0.24041067  0.39592897     0.07800
C263        C  0.28023744  0.19942574  0.39592941     0.09600
C264        C  0.26497656  0.16471440  0.39481586    -0.17100
C265        C  0.25993195  0.39682666  0.22478298    -0.16300
C266        C  0.27793923  0.39790917  0.24941886     0.07800
C267        C  0.29982188  0.39791255  0.27796825     0.09600
C268        C  0.31781824  0.39683575  0.30260854    -0.17100
C269        C  0.51217655  0.58124289  0.37992139    -0.16300
C270        C  0.48206101  0.55815688  0.37923973     0.07800
C271        C  0.45061789  0.52670927  0.37922825     0.09600
C272        C  0.42753572  0.49658933  0.37989187    -0.17100
C273        C  0.41559567  0.06738594  0.05590678    -0.16300
C274        C  0.42604704  0.07345208  0.02937817     0.07800
C275        C  0.43525867  0.08270242  0.99805352     0.09600
C276        C  0.44129479  0.09318133  0.97152705    -0.17100
C277        C  0.66206931  0.87256584  0.97159239    -0.16300
C278        C  0.65161658  0.86650649  0.99812156     0.07800
C279        C  0.64239687  0.85726342  0.02944616     0.09600
C280        C  0.63635232  0.84678643  0.05597193    -0.17100
C281        C  0.56544939  0.08135362  0.87992988    -0.16300
C282        C  0.59557291  0.05827489  0.87926973     0.07800
C283        C  0.62702415  0.02683405  0.87928278     0.09600
C284        C  0.65011405  0.99671900  0.87996220    -0.17100
C285        C  0.63626761  0.59318822  0.47158666    -0.16300
C286        C  0.64230707  0.58274145  0.49811941     0.07800
C287        C  0.65152758  0.57353056  0.52944891     0.09600
C288        C  0.66198743  0.56749284  0.55597902    -0.17100
C289        C  0.44135590  0.34675489  0.55590390    -0.16300
C290        C  0.43531244  0.35720391  0.52937208     0.07800
C291        C  0.42608975  0.36641537  0.49804291     0.09600
C292        C  0.41563163  0.37245244  0.47151234    -0.17100
C293        C  0.46570150  0.24894622  0.72481351    -0.16300
C294        C  0.46677612  0.23095137  0.74945534     0.07800
C295        C  0.46677260  0.20907476  0.77800753     0.09600
C296        C  0.46569088  0.19107601  0.80264765    -0.17100
C297        C  0.65010870  0.44334487  0.64758949    -0.16300
C298        C  0.62702318  0.41322532  0.64825151     0.07800
C299        C  0.59557828  0.38177649  0.64823944     0.09600
C300        C  0.56546324  0.35868744  0.64755830    -0.17100
C301        C  0.76498954  0.77528075  0.89488766    -0.16300
C302        C  0.78024862  0.74056773  0.89600252     0.07800
C303        C  0.79747473  0.69957868  0.89600253     0.09600
C304        C  0.81272566  0.66486208  0.89488682    -0.17100
C305        C  0.94142142  0.59322719  0.05594489    -0.16300
C306        C  0.93537004  0.58277967  0.02941319     0.07800
C307        C  0.92613408  0.57356733  0.99808650     0.09600
C308        C  0.91566150  0.56752757  0.97155892    -0.17100
C309        C  0.75985031  0.54310276  0.72486638    -0.16300
C310        C  0.77785215  0.54202744  0.74950468     0.07800
C311        C  0.79973604  0.54203378  0.77805354     0.09600
C312        C  0.81774001  0.54311905  0.80269074    -0.17100
C313        C  0.23353037  0.24381043  0.89483272    -0.16300
C314        C  0.26824343  0.22855571  0.89594878     0.07800
C315        C  0.30923240  0.21133657  0.89595042     0.09600
C316        C  0.34394987  0.19609129  0.89483715    -0.17100
C317        C  0.13621833  0.34670569  0.97154396    -0.16300
C318        C  0.14226503  0.35715691  0.99807562     0.07800
C319        C  0.15149538  0.36637731  0.02940175     0.09600
C320        C  0.16196651  0.37242388  0.05592889    -0.17100
C321        C  0.92748507  0.44336507  0.87993952    -0.16300
C322        C  0.95055870  0.41323797  0.87926182     0.07800
C323        C  0.98199238  0.38177865  0.87925260     0.09600
C324        C  0.01210188  0.35868257  0.87991616    -0.17100
C325        C  0.34402307  0.24384264  0.63258262    -0.16300
C326        C  0.30930775  0.22859182  0.63146376     0.07800
C327        C  0.26831648  0.21137573  0.63146136     0.09600
C328        C  0.23359835  0.19613051  0.63257563    -0.17100
C329        C  0.13627947  0.09320630  0.55589481    -0.16300
C330        C  0.14233424  0.08273750  0.52936815     0.07800
C331        C  0.15156917  0.07350162  0.49804463     0.09600
C332        C  0.16203552  0.06744427  0.47151787    -0.17100
C333        C  0.11186018  0.19110727  0.72477267    -0.16300
C334        C  0.11077456  0.20910434  0.74941343     0.07800
C335        C  0.11076718  0.23097538  0.77796893     0.09600
C336        C  0.11184072  0.24896205  0.80261415    -0.17100
C337        C  0.76489994  0.66482986  0.63266527    -0.16300
C338        C  0.78014717  0.69954872  0.63154818     0.07800
C339        C  0.79736452  0.74054207  0.63154437     0.09600
C340        C  0.81261454  0.77526011  0.63265482    -0.17100
C341        C  0.91554159  0.87254820  0.55594925    -0.16300
C342        C  0.92600879  0.86649039  0.52942287     0.07800
C343        C  0.93524618  0.85725224  0.49809990     0.09600
C344        C  0.94130351  0.84678121  0.47157418    -0.17100
C345        C  0.75984882  0.89700585  0.80268105    -0.16300
C346        C  0.77783437  0.89809240  0.77803631     0.07800
C347        C  0.79970044  0.89809711  0.74947960     0.09600
C348        C  0.81769205  0.89701627  0.72483712    -0.17100
C349        C  0.01211422  0.08136232  0.64751357    -0.16300
C350        C  0.98199095  0.05828335  0.64819147     0.07800
C351        C  0.95053711  0.02684407  0.64820232     0.09600
C352        C  0.92744445  0.99672976  0.64754152    -0.17100
loop_ 
_geom_bond_atom_site_label_1 
_geom_bond_atom_site_label_2 
_geom_bond_distance 
_geom_bond_site_symmetry_2 
_ccdc_geom_bond_type 
O1            V9   1.907       .  S
O1           C11   1.264       .  A
O2            V9   1.906       .  S
O2           C12   1.265       .  A
O3            V9   1.896       .  S
O3           C13   1.261       .  A
O4            V9   1.895       .  S
O4           C14   1.261       .  A
O5           V10   1.904       .  S
O5           C14   1.264       .  A
O6           V10   1.904       .  S
O6           C13   1.264       .  A
O7           V10   1.896       .  S
O7           C12   1.261       .  A
O8           V10   1.896       .  S
O8           C11   1.262       .  A
V9           V10   2.091       .  T
C11         C352   1.437       .  S
C12         C340   1.437       .  S
C13         C348   1.435       .  S
C14         C341   1.434       .  S
O15          V23   1.907       .  S
O15          C25   1.264       .  A
O16          V23   1.906       .  S
O16          C26   1.265       .  A
O17          V23   1.895       .  S
O17          C27   1.261       .  A
O18          V23   1.896       .  S
O18          C28   1.261       .  A
O19          V24   1.904       .  S
O19          C28   1.264       .  A
O20          V24   1.904       .  S
O20          C27   1.264       .  A
O21          V24   1.896       .  S
O21          C26   1.261       .  A
O22          V24   1.896       .  S
O22          C25   1.262       .  A
V23          V24   2.091       .  T
C25         C349   1.437       .  S
C26         C328   1.437       .  S
C27         C329   1.434       .  S
C28         C333   1.435       .  S
O29          V37   1.907       .  S
O29          C39   1.264       .  A
O30          V37   1.906       .  S
O30          C40   1.265       .  A
O31          V37   1.895       .  S
O31          C41   1.261       .  A
O32          V37   1.896       .  S
O32          C42   1.261       .  A
O33          V38   1.904       .  S
O33          C42   1.264       .  A
O34          V38   1.904       .  S
O34          C41   1.264       .  A
O35          V38   1.896       .  S
O35          C40   1.261       .  A
O36          V38   1.896       .  S
O36          C39   1.262       .  A
V37          V38   2.091       .  T
C39         C324   1.437       .  S
C40         C313   1.437       .  S
C41         C317   1.434       .  S
C42         C336   1.435       .  S
O43          V51   1.907       .  S
O43          C53   1.264       .  A
O44          V51   1.906       .  S
O44          C54   1.265       .  A
O45          V51   1.896       .  S
O45          C55   1.261       .  A
O46          V51   1.895       .  S
O46          C56   1.261       .  A
O47          V52   1.904       .  S
O47          C56   1.264       .  A
O48          V52   1.904       .  S
O48          C55   1.264       .  A
O49          V52   1.896       .  S
O49          C54   1.261       .  A
O50          V52   1.896       .  S
O50          C53   1.262       .  A
V51          V52   2.091       .  T
C53         C321   1.437       .  S
C54         C304   1.437       .  S
C55         C312   1.435       .  S
C56         C308   1.434       .  S
O57          V65   1.907       .  S
O57          C67   1.264       .  A
O58          V65   1.906       .  S
O58          C68   1.265       .  A
O59          V65   1.895       .  S
O59          C69   1.261       .  A
O60          V65   1.896       .  S
O60          C70   1.261       .  A
O61          V66   1.904       .  S
O61          C70   1.264       .  A
O62          V66   1.904       .  S
O62          C69   1.264       .  A
O63          V66   1.896       .  S
O63          C68   1.261       .  A
O64          V66   1.896       .  S
O64          C67   1.262       .  A
V65          V66   2.091       .  T
C67         C300   1.437       .  S
C68         C325   1.437       .  S
C69         C289   1.434       .  S
C70         C293   1.435       .  S
O71          V79   1.907       .  S
O71          C81   1.264       .  A
O72          V79   1.906       .  S
O72          C82   1.265       .  A
O73          V79   1.896       .  S
O73          C83   1.261       .  A
O74          V79   1.895       .  S
O74          C84   1.261       .  A
O75          V80   1.904       .  S
O75          C84   1.264       .  A
O76          V80   1.904       .  S
O76          C83   1.264       .  A
O77          V80   1.896       .  S
O77          C82   1.261       .  A
O78          V80   1.896       .  S
O78          C81   1.262       .  A
V79          V80   2.091       .  T
C81         C297   1.437       .  S
C82         C337   1.437       .  S
C83         C309   1.435       .  S
C84         C288   1.434       .  S
O85          V93   1.907       .  S
O85          C95   1.264       .  A
O86          V93   1.906       .  S
O86          C96   1.265       .  A
O87          V93   1.896       .  S
O87          C97   1.261       .  A
O88          V93   1.895       .  S
O88          C98   1.261       .  A
O89          V94   1.904       .  S
O89          C98   1.264       .  A
O90          V94   1.904       .  S
O90          C97   1.264       .  A
O91          V94   1.896       .  S
O91          C96   1.261       .  A
O92          V94   1.896       .  S
O92          C95   1.262       .  A
V93          V94   2.091       .  T
C95         C284   1.437       .  S
C96         C301   1.437       .  S
C97         C345   1.435       .  S
C98         C277   1.434       .  S
O99         V107   1.907       .  S
O99         C109   1.264       .  A
O100        V107   1.906       .  S
O100        C110   1.265       .  A
O101        V107   1.895       .  S
O101        C111   1.261       .  A
O102        V107   1.896       .  S
O102        C112   1.261       .  A
O103        V108   1.904       .  S
O103        C112   1.264       .  A
O104        V108   1.904       .  S
O104        C111   1.264       .  A
O105        V108   1.896       .  S
O105        C110   1.261       .  A
O106        V108   1.896       .  S
O106        C109   1.262       .  A
V107        V108   2.091       .  T
C109        C281   1.437       .  S
C110        C316   1.437       .  S
C111        C276   1.434       .  S
C112        C296   1.435       .  S
O113        V121   1.907       .  S
O113        C123   1.264       .  A
O114        V121   1.906       .  S
O114        C124   1.265       .  A
O115        V121   1.895       .  S
O115        C125   1.261       .  A
O116        V121   1.896       .  S
O116        C126   1.261       .  A
O117        V122   1.904       .  S
O117        C126   1.264       .  A
O118        V122   1.904       .  S
O118        C125   1.264       .  A
O119        V122   1.896       .  S
O119        C124   1.261       .  A
O120        V122   1.896       .  S
O120        C123   1.262       .  A
V121        V122   2.091       .  T
C123        C272   1.437       .  S
C124        C261   1.437       .  S
C125        C292   1.434       .  S
C126        C268   1.435       .  S
O127        V135   1.907       .  S
O127        C137   1.264       .  A
O128        V135   1.906       .  S
O128        C138   1.265       .  A
O129        V135   1.896       .  S
O129        C139   1.261       .  A
O130        V135   1.895       .  S
O130        C140   1.261       .  A
O131        V136   1.904       .  S
O131        C140   1.264       .  A
O132        V136   1.904       .  S
O132        C139   1.264       .  A
O133        V136   1.896       .  S
O133        C138   1.261       .  A
O134        V136   1.896       .  S
O134        C137   1.262       .  A
V135        V136   2.091       .  T
C137        C269   1.437       .  S
C138        C256   1.437       .  S
C139        C260   1.435       .  S
C140        C285   1.434       .  S
O141        V149   1.907   1_455  S
O141        C151   1.264       .  A
O142        V149   1.906       .  S
O142        C152   1.265       .  A
O143        V149   1.896       .  S
O143        C153   1.261       .  A
O144        V149   1.895       .  S
O144        C154   1.261       .  A
O145        V150   1.904       .  S
O145        C154   1.264       .  A
O146        V150   1.904       .  S
O146        C153   1.264       .  A
O147        V150   1.896       .  S
O147        C152   1.261       .  A
O148        V150   1.896       .  S
O148        C151   1.262   1_655  A
V149        V150   2.091       .  T
C151        C252   1.437       .  S
C152        C241   1.437       .  S
C153        C248   1.435       .  S
C154        C305   1.434       .  S
O155        V163   1.907       .  S
O155        C165   1.264       .  A
O156        V163   1.906       .  S
O156        C166   1.265       .  A
O157        V163   1.895       .  S
O157        C167   1.261       .  A
O158        V163   1.896       .  S
O158        C168   1.261       .  A
O159        V164   1.904       .  S
O159        C168   1.264       .  A
O160        V164   1.904       .  S
O160        C167   1.264       .  A
O161        V164   1.896       .  S
O161        C166   1.261       .  A
O162        V164   1.896       .  S
O162        C165   1.262       .  A
V163        V164   2.091       .  T
C165        C249   1.437       .  S
C166        C237   1.437       .  S
C167        C320   1.434       .  S
C168        C265   1.435       .  S
O169        V177   1.907   1_565  S
O169        C179   1.264       .  A
O170        V177   1.906       .  S
O170        C180   1.265       .  A
O171        V177   1.895       .  S
O171        C181   1.261       .  A
O172        V177   1.896       .  S
O172        C182   1.261       .  A
O173        V178   1.904       .  S
O173        C182   1.264       .  A
O174        V178   1.904       .  S
O174        C181   1.264       .  A
O175        V178   1.896       .  S
O175        C180   1.261       .  A
O176        V178   1.896       .  S
O176        C179   1.262   1_545  A
V177        V178   2.091       .  T
C179        C233   1.437       .  S
C180        C240   1.437       .  S
C181        C273   1.434       .  S
C182        C229   1.435       .  S
O183        V191   1.907       .  S
O183        C193   1.264       .  A
O184        V191   1.906       .  S
O184        C194   1.265       .  A
O185        V191   1.896       .  S
O185        C195   1.261       .  A
O186        V191   1.895       .  S
O186        C196   1.261       .  A
O187        V192   1.904       .  S
O187        C196   1.264       .  A
O188        V192   1.904       .  S
O188        C195   1.264       .  A
O189        V192   1.896       .  S
O189        C194   1.261       .  A
O190        V192   1.896       .  S
O190        C193   1.262       .  A
V191        V192   2.091       .  T
C193        C236   1.437       .  S
C194        C244   1.437       .  S
C195        C257   1.435       .  S
C196        C280   1.434       .  S
O197        V205   1.907   1_455  S
O197        C207   1.264       .  A
O198        V205   1.906       .  S
O198        C208   1.265       .  A
O199        V205   1.896       .  S
O199        C209   1.261       .  A
O200        V205   1.895       .  S
O200        C210   1.261       .  A
O201        V206   1.904       .  S
O201        C210   1.264       .  A
O202        V206   1.904       .  S
O202        C209   1.264       .  A
O203        V206   1.896       .  S
O203        C208   1.261       .  A
O204        V206   1.896       .  S
O204        C207   1.262   1_655  A
V205        V206   2.091       .  T
C207        C228   1.437       .  S
C208        C253   1.437       .  S
C209        C245   1.435       .  S
C210        C344   1.434       .  S
O211        V219   1.907   1_565  S
O211        C221   1.264       .  A
O212        V219   1.906       .  S
O212        C222   1.265       .  A
O213        V219   1.895       .  S
O213        C223   1.261       .  A
O214        V219   1.896       .  S
O214        C224   1.261       .  A
O215        V220   1.904       .  S
O215        C224   1.264       .  A
O216        V220   1.904       .  S
O216        C223   1.264       .  A
O217        V220   1.896       .  S
O217        C222   1.261       .  A
O218        V220   1.896       .  S
O218        C221   1.262   1_545  A
V219        V220   2.091       .  T
C221        C225   1.437       .  S
C222        C264   1.437       .  S
C223        C332   1.434       .  S
C224        C232   1.435       .  S
C225        C226   1.207       .  T
C226        C227   1.414       .  S
C227        C228   1.207       .  T
C229        C230   1.206       .  T
C230        C231   1.413       .  S
C231        C232   1.206       .  T
C233        C234   1.207       .  T
C234        C235   1.414       .  S
C235        C236   1.207       .  T
C237        C238   1.207       .  T
C238        C239   1.414       .  S
C239        C240   1.207       .  T
C241        C242   1.207       .  T
C242        C243   1.414       .  S
C243        C244   1.207       .  T
C245        C246   1.206       .  T
C246        C247   1.413       .  S
C247        C248   1.206       .  T
C249        C250   1.207       .  T
C250        C251   1.414       .  S
C251        C252   1.207       .  T
C253        C254   1.207       .  T
C254        C255   1.414       .  S
C255        C256   1.207       .  T
C257        C258   1.206       .  T
C258        C259   1.413       .  S
C259        C260   1.206       .  T
C261        C262   1.207       .  T
C262        C263   1.414       .  S
C263        C264   1.207       .  T
C265        C266   1.206       .  T
C266        C267   1.413       .  S
C267        C268   1.206       .  T
C269        C270   1.207       .  T
C270        C271   1.414       .  S
C271        C272   1.207       .  T
C273        C274   1.205       .  T
C274        C275   1.411   1_554  S
C275        C276   1.205       .  T
C277        C278   1.205       .  T
C278        C279   1.411   1_556  S
C279        C280   1.205       .  T
C281        C282   1.207       .  T
C282        C283   1.414       .  S
C283        C284   1.207   1_545  T
C285        C286   1.205       .  T
C286        C287   1.411       .  S
C287        C288   1.205       .  T
C289        C290   1.205       .  T
C290        C291   1.411       .  S
C291        C292   1.205       .  T
C293        C294   1.206       .  T
C294        C295   1.413       .  S
C295        C296   1.206       .  T
C297        C298   1.207       .  T
C298        C299   1.414       .  S
C299        C300   1.207       .  T
C301        C302   1.207       .  T
C302        C303   1.414       .  S
C303        C304   1.207       .  T
C305        C306   1.205       .  T
C306        C307   1.411   1_554  S
C307        C308   1.205       .  T
C309        C310   1.206       .  T
C310        C311   1.413       .  S
C311        C312   1.206       .  T
C313        C314   1.207       .  T
C314        C315   1.414       .  S
C315        C316   1.207       .  T
C317        C318   1.205       .  T
C318        C319   1.411   1_556  S
C319        C320   1.205       .  T
C321        C322   1.207       .  T
C322        C323   1.414       .  S
C323        C324   1.207   1_655  T
C325        C326   1.207       .  T
C326        C327   1.414       .  S
C327        C328   1.207       .  T
C329        C330   1.205       .  T
C330        C331   1.411       .  S
C331        C332   1.205       .  T
C333        C334   1.206       .  T
C334        C335   1.413       .  S
C335        C336   1.206       .  T
C337        C338   1.207       .  T
C338        C339   1.414       .  S
C339        C340   1.207       .  T
C341        C342   1.205       .  T
C342        C343   1.411       .  S
C343        C344   1.205       .  T
C345        C346   1.206       .  T
C346        C347   1.413       .  S
C347        C348   1.206       .  T
C349        C350   1.207   1_455  T
C350        C351   1.414       .  S
C351        C352   1.207   1_545  T
