geometry optimzed in LAMMPS
_audit_creation_date              2020-12-01 
_audit_creation_method            'lammps2cif' 
_symmetry_space_group_name_H-M    'P1' 
_symmetry_Int_Tables_number       1 
_symmetry_cell_setting            triclinic 
loop_ 
_symmetry_equiv_pos_as_xyz 
  x,y,z 
_cell_length_a                    23.62940756 
_cell_length_b                    21.39945333416851 
_cell_length_c                    23.337290579102095 
_cell_angle_alpha                 83.01072929155706 
_cell_angle_beta                  98.83783388575462 
_cell_angle_gamma                 92.28966982705354 
loop_ 
_atom_site_label 
_atom_site_type_symbol 
_atom_site_fract_x 
_atom_site_fract_y 
_atom_site_fract_z 
_atom_site_charge 
O1          O  0.01886906  0.08961495  0.50058717    -0.72900
O2          O  0.02389651  0.95400887  0.40909862    -0.72900
O3          O  0.94408248  0.03741287  0.41875057    -0.73000
O4          O  0.09837541  0.00696503  0.49074615    -0.73000
O5          O  0.06751535  0.94131566  0.56206018    -0.73000
O6          O  0.91319317  0.97185133  0.49009548    -0.72900
O7          O  0.99275953  0.88903519  0.48071323    -0.72900
O8          O  0.98791015  0.02398552  0.57187527    -0.73000
Ni9        Ni  0.02242804  0.02445550  0.45219971     1.25400
Ni10       Ni  0.98914367  0.95408979  0.52862153     1.25400
C11         C  0.00344684  0.07883601  0.55117006     0.89300
C12         C  0.00887871  0.89913363  0.43051305     0.89200
C13         C  0.90349381  0.00919822  0.44269640     0.89300
C14         C  0.10805010  0.97010949  0.53843616     0.89400
O15         O  0.17010698  0.52533156  0.54128302    -0.79400
O16         O  0.88963210  0.53501658  0.53419405    -0.64000
O17         O  0.05259629  0.49357516  0.55626612    -1.10600
C18         C  0.00460093  0.40685927  0.38257673     1.07500
O19         O  0.85184863  0.45889661  0.48212773    -0.77200
O20         O  0.94193572  0.37739847  0.52273001    -0.64800
Ni21       Ni  0.10842521  0.55879558  0.57546720     1.34900
C22         C  0.99295616  0.35811926  0.53713656     0.86300
O23         O  0.97861487  0.54151436  0.62079766    -0.77800
O24         O  0.05859141  0.60026515  0.61722446    -0.88100
C25         C  0.84567313  0.50451104  0.51091611     0.85800
O26         O  0.08035762  0.60698396  0.50350871    -0.66300
O27         O  0.96533740  0.38289288  0.41043362    -0.85600
C28         C  0.02909282  0.62465344  0.48693005     0.86700
C29         C  0.01423912  0.58249429  0.64016792     1.08200
H30         H  0.96234569  0.52519939  0.43924117     0.40000
O31         O  0.96931891  0.49005954  0.46939057    -1.08200
O32         O  0.03562744  0.38276053  0.51405291    -0.64900
Ni33       Ni  0.04960772  0.46841552  0.47996828     1.26300
O34         O  0.98621563  0.60090067  0.51005911    -0.65100
O35         O  0.04195781  0.44549404  0.40316683    -0.77400
C36         C  0.17593256  0.48050639  0.51136244     0.86100
O37         O  0.13184476  0.44939596  0.48943489    -0.64600
Ni38       Ni  0.91415013  0.42450146  0.45011407     1.27400
Ni39       Ni  0.97207955  0.51585480  0.54514571     1.26100
H40         H  0.05927610  0.45817020  0.58617713     0.40600
O41         O  0.61663131  0.07387532  0.44598800    -0.79400
O42         O  0.40872657  0.02276891  0.56572927    -0.64000
O43         O  0.55722226  0.00921273  0.52761911    -1.10600
C44         C  0.45001280  0.91673184  0.36770312     1.07500
O45         O  0.40150163  0.92029496  0.55965236    -0.77200
O46         O  0.45636163  0.84187391  0.50093606    -0.64800
Ni47       Ni  0.60957876  0.07912239  0.52645647     1.34900
C48         C  0.51014227  0.83561020  0.50477561     0.86300
O49         O  0.51412973  0.05566665  0.61772066    -0.77800
O50         O  0.60540525  0.08522197  0.60731372    -0.88100
C51         C  0.38210916  0.97028808  0.57312046     0.85800
O52         O  0.56039057  0.15113412  0.50498079    -0.66300
O53         O  0.40971919  0.90628381  0.39865729    -0.85600
C54         C  0.50648079  0.15783660  0.49935959     0.86700
C55         C  0.56398157  0.07646187  0.63697335     1.08200
H56         H  0.43940384  0.01611680  0.44779156     0.40000
O57         O  0.45802652  0.98399390  0.47639459    -1.08200
O58         O  0.54346185  0.88399033  0.49540337    -0.64900
Ni59       Ni  0.53088462  0.97217984  0.45684560     1.26300
O60         O  0.47250339  0.10967239  0.50718677    -0.65100
O61         O  0.49985735  0.93882694  0.38561780    -0.77400
C62         C  0.63326197  0.02382847  0.42972718     0.86100
O63         O  0.60592406  0.97178656  0.43702754    -0.64600
Ni64       Ni  0.40667340  0.91334114  0.47934325     1.27400
Ni65       Ni  0.48410846  0.02173871  0.54671392     1.26100
H66         H  0.57520067  0.97657804  0.55609879     0.40600
O67         O  0.50728224  0.99100955  0.09735653    -0.72900
O68         O  0.56833181  0.05280472  0.95842321    -0.72900
O69         O  0.49831489  0.09905852  0.02333969    -0.73000
O70         O  0.57685923  0.94437687  0.03297390    -0.73000
O71         O  0.50042121  0.90426863  0.97959433    -0.73000
O72         O  0.42191171  0.05829223  0.97043585    -0.72900
O73         O  0.49176189  0.01242281  0.90548293    -0.72900
O74         O  0.43088844  0.95017248  0.04448013    -0.73000
Ni75       Ni  0.54047463  0.02335765  0.02992717     1.25400
Ni76       Ni  0.45855124  0.97988378  0.97298407     1.25400
C77         C  0.45982040  0.95981676  0.09367341     0.89300
C78         C  0.53952965  0.04307308  0.90917780     0.89200
C79         C  0.44758989  0.10398533  0.99486849     0.89300
C80         C  0.55056984  0.89854103  0.00913116     0.89400
O81         O  0.07794299  0.51382930  0.01461749    -0.72900
O82         O  0.92877899  0.44800030  0.96390808    -0.72900
O83         O  0.00412363  0.52670651  0.91423245    -0.73000
O84         O  0.00299623  0.43505707  0.06456517    -0.73000
O85         O  0.96503024  0.51761140  0.09372048    -0.73000
O86         O  0.96578269  0.60965194  0.94232085    -0.72900
O87         O  0.89047518  0.53049269  0.99280756    -0.72900
O88         O  0.04023406  0.59682623  0.04330302    -0.73000
Ni89       Ni  0.00480899  0.47801714  0.98828666     1.25400
Ni90       Ni  0.96386289  0.56664149  0.01914624     1.25400
C91         C  0.08354869  0.56597550  0.03666191     0.89300
C92         C  0.88526534  0.47849305  0.97035897     0.89200
C93         C  0.98536933  0.58276061  0.90362991     0.89300
C94         C  0.98433314  0.46164502  0.10384759     0.89400
O95         O  0.62849824  0.45483557  0.03136295    -0.77400
O96         O  0.38999419  0.56815478  0.04561042    -0.64000
O97         O  0.51171470  0.46242575  0.03378105    -1.10600
C98         C  0.46515756  0.51375093  0.82567176     1.07500
O99         O  0.33383839  0.55040946  0.96264877    -0.77200
O100        O  0.37339718  0.44270596  0.93433268    -0.64800
Ni101      Ni  0.58117015  0.46583762  0.08955447     1.34900
C102        C  0.41160370  0.40180483  0.93834047     0.86300
O103        O  0.45192080  0.48978806  0.12512010    -0.77800
O104        O  0.54416282  0.47387386  0.15822273    -0.88100
C105        C  0.34228103  0.57012738  0.01262992     0.85800
O106        O  0.59152626  0.55449938  0.07346908    -0.66300
O107        O  0.41493641  0.51104848  0.83974154    -0.85600
C108        C  0.55472623  0.59747209  0.06309924     0.86700
C109        C  0.49283246  0.47902625  0.16765258     1.08200
H110        H  0.46285701  0.58368183  0.95106356     0.40000
O111        O  0.45051146  0.54017397  0.95785703    -1.08200
O112        O  0.46391403  0.41526766  0.93436750    -0.64900
Ni113      Ni  0.51179930  0.48817440  0.94995110     1.26300
O114        O  0.50083647  0.58725981  0.05638577    -0.65100
O115        O  0.50950089  0.51409768  0.86516354    -0.77400
C116        C  0.62237776  0.43813870  0.98020320     0.86100
O117        O  0.57507492  0.43774108  0.94639102    -0.64600
Ni118      Ni  0.37979470  0.52957330  0.90623063     1.27400
Ni119      Ni  0.45131489  0.51553367  0.04145102     1.26100
H120        H  0.49744093  0.41950902  0.03914554     0.40600
O121        O  0.66063176  0.55133694  0.52771918    -0.79400
O122        O  0.38814245  0.51996196  0.53586566    -0.64000
O123        O  0.55145725  0.49276726  0.54938941    -1.10600
C124        C  0.50499739  0.46584182  0.34321170     1.07500
O125        O  0.35999057  0.44211787  0.48124344    -0.77200
O126        O  0.44729364  0.36411940  0.45517982    -0.64800
Ni127      Ni  0.60701118  0.55122227  0.58513353     1.34900
C128        C  0.49924480  0.34859681  0.47484117     0.86300
O129        O  0.47607988  0.51351191  0.63040147    -0.77800
O130        O  0.56603037  0.55093477  0.65182391    -0.88100
C131        C  0.34813595  0.48453415  0.51216891     0.85800
O132        O  0.57223030  0.63089305  0.54808447    -0.66300
O133        O  0.45423523  0.45108347  0.35432459    -0.85600
C134        C  0.51939484  0.64516329  0.53286573     0.86700
C135        C  0.51790275  0.53202042  0.66737316     1.08200
H136        H  0.46404434  0.54247857  0.44133333     0.40000
O137        O  0.46974632  0.50105368  0.46267764    -1.08200
O138        O  0.53970011  0.39056396  0.48211623    -0.64900
Ni139      Ni  0.54997327  0.48318044  0.46760861     1.26300
O140        O  0.47930019  0.60227592  0.53088439    -0.65100
O141        O  0.54597611  0.47802279  0.38367123    -0.77400
C142        C  0.67285702  0.50603597  0.50052273     0.86100
O143        O  0.63270245  0.47013491  0.47786450    -0.64600
Ni144      Ni  0.41342689  0.44603432  0.42267292     1.27400
Ni145      Ni  0.47104409  0.50919014  0.54523493     1.26100
H146        H  0.55853854  0.45204847  0.57174798     0.40600
C147        C  0.46840429  0.51425664  0.76034621    -0.14900
C148        C  0.51437392  0.53157661  0.73265041    -0.30100
H149        H  0.42915960  0.50130553  0.73320742     0.14100
H150        H  0.55309667  0.54619391  0.75964684     0.14700
C151        C  0.47904355  0.47228556  0.23036158    -0.14900
C152        C  0.51838989  0.46930966  0.28053223    -0.30100
H153        H  0.43400425  0.47156020  0.23505999     0.14100
H154        H  0.56340508  0.47245646  0.27561237     0.14700
C155        C  0.82915131  0.45312074  0.95389938    -0.17000
C156        C  0.77996322  0.43549189  0.94690387     0.07100
C157        C  0.72140962  0.42340385  0.94862068     0.08900
C158        C  0.67323366  0.42374791  0.95898843    -0.17800
C159        C  0.29407407  0.59243878  0.03369870    -0.17000
C160        C  0.24855147  0.60232001  0.04733271     0.07100
C161        C  0.19070707  0.60175358  0.05483769     0.08900
C162        C  0.14022259  0.59047018  0.05173378    -0.17800
C163        C  0.57528388  0.83765897  0.01930889    -0.17000
C164        C  0.58518262  0.78260261  0.03138726     0.07100
C165        C  0.58426325  0.71697653  0.04631252     0.08900
C166        C  0.57447645  0.66154624  0.05664026    -0.17800
C167        C  0.42021681  0.16323729  0.98749333    -0.17000
C168        C  0.40340317  0.21618028  0.97679948     0.07100
C169        C  0.39393921  0.28076484  0.96148900     0.08900
C170        C  0.39632041  0.33679228  0.94906349    -0.17800
C171        C  0.53435831  0.76875188  0.52027249    -0.14900
C172        C  0.50110973  0.71423638  0.51734176    -0.30100
H173        H  0.58034922  0.76449144  0.53267073     0.14100
H174        H  0.45541739  0.72022575  0.50363695     0.14700
C175        C  0.48294483  0.22499898  0.48362249    -0.14900
C176        C  0.51632980  0.27904444  0.48962163    -0.30100
H177        H  0.43734086  0.22983002  0.46872385     0.14100
H178        H  0.56148328  0.27226457  0.50605092     0.14700
C179        C  0.57404058  0.08831845  0.69664552    -0.17000
C180        C  0.57663311  0.08985679  0.74827224     0.07100
C181        C  0.57179595  0.08144988  0.80798121     0.08900
C182        C  0.56062107  0.06673782  0.85638191    -0.17800
C183        C  0.43981924  0.93453841  0.14649322    -0.17000
C184        C  0.43146383  0.91744310  0.19543553     0.07100
C185        C  0.43145900  0.90614102  0.25589008     0.08900
C186        C  0.43791598  0.90589008  0.30792511    -0.17800
C187        C  0.78468835  0.52221238  0.51792906    -0.14900
C188        C  0.73492966  0.49404229  0.49281377    -0.30100
H189        H  0.78090911  0.55893390  0.54528408     0.14100
H190        H  0.73968039  0.45715140  0.46591754     0.14700
C191        C  0.23642404  0.46456579  0.50088433    -0.14900
C192        C  0.28654108  0.49410852  0.52326810    -0.30100
H193        H  0.23939040  0.42821344  0.47291032     0.14100
H194        H  0.28242747  0.53039578  0.55100693     0.14700
C195        C  0.98610715  0.61447863  0.84627478    -0.17000
C196        C  0.98980826  0.62687954  0.79537111     0.07100
C197        C  0.99680114  0.62415755  0.73702181     0.08900
C198        C  0.00420782  0.60977931  0.69056121    -0.17800
C199        C  0.98714761  0.42893620  0.16125109    -0.17000
C200        C  0.99263083  0.40730955  0.21169211     0.07100
C201        C  0.00027932  0.39272502  0.27263740     0.08900
C202        C  0.00484904  0.39219802  0.32463410    -0.17800
C203        C  0.16588514  0.96219775  0.56607782    -0.17000
C204        C  0.21638754  0.96099541  0.58344048     0.07100
C205        C  0.27644879  0.96404663  0.59333398     0.08900
C206        C  0.32676223  0.96774532  0.59051807    -0.17800
C207        C  0.68594335  0.02575670  0.40674873    -0.17000
C208        C  0.73486840  0.02648859  0.39846912     0.07100
C209        C  0.79465673  0.02460952  0.40256784     0.08900
C210        C  0.84546207  0.01957916  0.41659588    -0.17800
C211        C  0.01991570  0.67666438  0.44246016    -0.17000
C212        C  0.01540659  0.72638002  0.41246216     0.07100
C213        C  0.01285438  0.79114873  0.39438643     0.08900
C214        C  0.01138234  0.84593601  0.39995330    -0.17800
C215        C  0.00140714  0.30168156  0.57623890    -0.17000
C216        C  0.00450572  0.24754691  0.59655766     0.07100
C217        C  0.00451765  0.18188232  0.59966175     0.08900
C218        C  0.00350124  0.13032202  0.58446102    -0.17800
loop_ 
_geom_bond_atom_site_label_1 
_geom_bond_atom_site_label_2 
_geom_bond_distance 
_geom_bond_site_symmetry_2 
_ccdc_geom_bond_type 
O1           Ni9   1.910       .  S
O1           C11   1.280       .  A
O2           Ni9   1.916   1_565  S
O2           C12   1.278       .  A
O3           Ni9   1.913   1_655  S
O3           C13   1.278       .  A
O4           Ni9   1.909       .  S
O4           C14   1.279   1_545  A
O5          Ni10   1.912   1_455  S
O5           C14   1.278       .  A
O6          Ni10   1.910       .  S
O6           C13   1.279   1_565  A
O7          Ni10   1.901       .  S
O7           C12   1.278   1_655  A
O8          Ni10   1.907   1_545  S
O8           C11   1.276   1_655  A
Ni9         Ni10   2.398   1_445  S
C11         C218   1.423       .  S
C12         C214   1.423       .  S
C13         C210   1.427       .  S
C14         C203   1.426       .  S
O15         Ni21   1.963       .  S
O15          C36   1.277       .  A
O16         Ni39   1.978       .  S
O16          C25   1.288       .  A
O17         Ni21   1.927       .  S
O17         Ni39   1.951   1_455  S
O17         Ni33   1.912       .  S
O17          H40   0.966       .  S
C18          O35   1.266       .  A
C18          O27   1.270   1_455  A
C18         C202   1.426       .  S
O19         Ni38   1.956       .  S
O19          C25   1.275       .  A
O20         Ni38   1.901       .  S
O20          C22   1.272       .  A
Ni21         O24   1.942       .  S
Ni21         O26   1.901       .  S
C22          O32   1.281   1_655  A
C22         C215   1.423   1_655  S
O23         Ni39   1.894       .  S
O23          C29   1.266   1_655  A
O24          C29   1.273       .  A
C25         C187   1.542       .  S
O26          C28   1.272       .  A
O27         Ni38   1.935       .  S
C28          O34   1.279   1_455  A
C28         C211   1.425       .  S
C29         C198   1.430       .  S
H30          O31   0.966       .  S
O31         Ni39   1.906       .  S
O31         Ni33   1.942   1_655  S
O31         Ni38   1.923       .  S
O32         Ni33   1.944       .  S
Ni33         O37   1.975       .  S
Ni33         O35   1.896       .  S
O34         Ni39   1.941       .  S
C36          O37   1.286       .  A
C36         C191   1.545       .  S
O41         Ni47   1.928       .  S
O41          C62   1.274       .  A
O42         Ni65   1.902       .  S
O42          C51   1.271   1_545  A
O43         Ni47   1.903       .  S
O43         Ni65   1.886       .  S
O43         Ni59   1.925   1_545  S
O43          H66   0.966   1_545  S
C44          O61   1.280       .  A
C44          O53   1.278       .  A
C44         C186   1.426       .  S
O45         Ni64   1.921       .  S
O45          C51   1.272       .  A
O46         Ni64   1.935       .  S
O46          C48   1.271       .  A
Ni47         O50   1.925       .  S
Ni47         O52   1.937       .  S
C48          O58   1.293       .  A
C48         C171   1.543       .  S
O49         Ni65   1.915       .  S
O49          C55   1.277       .  A
O50          C55   1.278       .  A
C51         C206   1.425       .  S
O52          C54   1.272       .  A
O53         Ni64   1.920       .  S
C54          O60   1.294       .  A
C54         C175   1.544       .  S
C55         C179   1.428       .  S
H56          O57   0.966   1_545  S
O57         Ni65   1.923   1_565  S
O57         Ni59   1.882       .  S
O57         Ni64   1.902       .  S
O58         Ni59   2.002       .  S
Ni59         O63   1.901       .  S
Ni59         O61   1.919       .  S
O60         Ni65   2.002       .  S
C62          O63   1.272   1_545  A
C62         C207   1.426       .  S
O67         Ni75   1.908   1_565  S
O67          C77   1.279       .  A
O68         Ni75   1.914   1_556  S
O68          C78   1.278       .  A
O69         Ni75   1.914       .  S
O69          C79   1.280   1_554  A
O70         Ni75   1.915   1_565  S
O70          C80   1.279       .  A
O71         Ni76   1.908       .  S
O71          C80   1.278   1_556  A
O72         Ni76   1.909   1_545  S
O72          C79   1.277       .  A
O73         Ni76   1.911   1_545  S
O73          C78   1.279       .  A
O74         Ni76   1.913   1_554  S
O74          C77   1.278       .  A
Ni75        Ni76   2.397   1_544  S
C77         C183   1.425       .  S
C78         C182   1.428       .  S
C79         C167   1.426       .  S
C80         C163   1.427       .  S
O81         Ni89   1.906   1_554  S
O81          C91   1.278       .  A
O82         Ni89   1.910   1_655  S
O82          C92   1.277       .  A
O83         Ni89   1.905       .  S
O83          C93   1.278   1_455  A
O84         Ni89   1.907   1_554  S
O84          C94   1.277   1_455  A
O85         Ni90   1.917       .  S
O85          C94   1.281       .  A
O86         Ni90   1.919   1_556  S
O86          C93   1.279       .  A
O87         Ni90   1.914   1_556  S
O87          C92   1.280       .  A
O88         Ni90   1.917   1_455  S
O88          C91   1.279       .  A
Ni89        Ni90   2.397   1_456  S
C91         C162   1.427       .  S
C92         C155   1.427       .  S
C93         C195   1.427       .  S
C94         C199   1.427       .  S
O95        Ni101   1.928       .  S
O95         C116   1.273   1_554  A
O96        Ni119   1.891       .  S
O96         C105   1.263       .  A
O97        Ni101   1.937       .  S
O97        Ni119   1.902       .  S
O97        Ni113   1.967   1_554  S
O97         H120   0.966       .  S
C98         O115   1.285       .  A
C98         O107   1.276       .  A
C98         C147   1.537       .  S
O99        Ni118   1.932       .  S
O99         C105   1.273   1_556  A
O100       Ni118   1.903       .  S
O100        C102   1.268       .  A
Ni101       O104   1.968       .  S
Ni101       O106   1.902       .  S
C102        O112   1.273       .  A
C102        C170   1.425       .  S
O103       Ni119   1.961       .  S
O103        C109   1.281       .  A
O104        C109   1.277       .  A
C105        C159   1.428       .  S
O106        C108   1.267       .  A
O107       Ni118   1.956       .  S
C108        O114   1.272       .  A
C108        C166   1.429       .  S
C109        C151   1.536       .  S
H110        O111   0.966       .  S
O111       Ni119   1.955   1_556  S
O111       Ni113   1.905       .  S
O111       Ni118   1.927       .  S
O112       Ni113   1.928       .  S
Ni113       O117   1.896       .  S
Ni113       O115   1.982       .  S
O114       Ni119   1.926       .  S
C116        O117   1.266       .  A
C116        C158   1.426       .  S
O121       Ni127   1.980       .  S
O121        C142   1.286       .  A
O122       Ni145   1.957       .  S
O122        C131   1.288       .  A
O123       Ni127   1.942       .  S
O123       Ni145   1.932       .  S
O123       Ni139   1.939       .  S
O123        H146   0.966       .  S
C124        O141   1.287       .  A
C124        O133   1.285       .  A
C124        C152   1.536       .  S
O125       Ni144   1.991       .  S
O125        C131   1.290       .  A
O126       Ni144   1.972       .  S
O126        C128   1.285       .  A
Ni127       O130   1.955       .  S
Ni127       O132   1.966       .  S
C128        O138   1.291       .  A
C128        C176   1.542       .  S
O129       Ni145   1.986       .  S
O129        C135   1.291       .  A
O130        C135   1.282       .  A
C131        C192   1.543       .  S
O132        C134   1.283       .  A
O133       Ni144   1.977       .  S
C134        O140   1.292       .  A
C134        C172   1.541       .  S
C135        C148   1.537       .  S
H136        O137   0.966       .  S
O137       Ni145   1.951       .  S
O137       Ni139   1.932       .  S
O137       Ni144   1.947       .  S
O138       Ni139   1.981       .  S
Ni139       O143   1.960       .  S
Ni139       O141   1.963       .  S
O140       Ni145   1.986       .  S
C142        O143   1.287       .  A
C142        C188   1.540       .  S
C147        C148   1.364       .  D
C147        H149   1.086       .  S
C148        H150   1.086       .  S
C151        C152   1.375       .  D
C151        H153   1.086       .  S
C152        H154   1.086       .  S
C155        C156   1.201       .  T
C156        C157   1.403       .  S
C157        C158   1.200       .  T
C159        C160   1.201       .  T
C160        C161   1.404       .  S
C161        C162   1.201       .  T
C163        C164   1.201       .  T
C164        C165   1.405       .  S
C165        C166   1.202       .  T
C167        C168   1.200       .  T
C168        C169   1.403       .  S
C169        C170   1.200       .  T
C171        C172   1.383       .  D
C171        H173   1.085       .  S
C172        H174   1.086       .  S
C175        C176   1.383       .  D
C175        H177   1.085       .  S
C176        H178   1.086       .  S
C179        C180   1.201       .  T
C180        C181   1.405       .  S
C181        C182   1.201       .  T
C183        C184   1.200       .  T
C184        C185   1.402       .  S
C185        C186   1.200       .  T
C187        C188   1.381       .  D
C187        H189   1.085       .  S
C188        H190   1.086       .  S
C191        C192   1.380       .  D
C191        H193   1.085       .  S
C192        H194   1.086       .  S
C195        C196   1.201       .  T
C196        C197   1.405       .  S
C197        C198   1.202   1_655  T
C199        C200   1.201       .  T
C200        C201   1.404   1_655  S
C201        C202   1.200       .  T
C203        C204   1.200       .  T
C204        C205   1.403       .  S
C205        C206   1.200       .  T
C207        C208   1.200       .  T
C208        C209   1.403       .  S
C209        C210   1.200       .  T
C211        C212   1.199       .  T
C212        C213   1.400       .  S
C213        C214   1.198       .  T
C215        C216   1.198       .  T
C216        C217   1.398       .  S
C217        C218   1.198       .  T
