geometry optimzed in LAMMPS
_audit_creation_date              2020-12-01 
_audit_creation_method            'lammps2cif' 
_symmetry_space_group_name_H-M    'P1' 
_symmetry_Int_Tables_number       1 
_symmetry_cell_setting            triclinic 
loop_ 
_symmetry_equiv_pos_as_xyz 
  x,y,z 
_cell_length_a                    28.03426482 
_cell_length_b                    28.26273338617325 
_cell_length_c                    25.823882547196774 
_cell_angle_alpha                 88.40475514265637 
_cell_angle_beta                  90.87073037976357 
_cell_angle_gamma                 89.9005245536963 
loop_ 
_atom_site_label 
_atom_site_type_symbol 
_atom_site_fract_x 
_atom_site_fract_y 
_atom_site_fract_z 
_atom_site_charge 
O1          O  0.87792975  0.42253774  0.58423388    -0.54600
C2          C  0.90934581  0.31692666  0.69653018     0.78100
O3          O  0.80472911  0.45785441  0.68174351    -0.55700
C4          C  0.84513951  0.41754325  0.55061077     0.78000
C5          C  0.75151452  0.32112332  0.65938428     0.80400
Cd6        Cd  0.83556479  0.37925082  0.65508250     1.37500
O7          O  0.91365478  0.33658616  0.65211831    -0.54600
O8          O  0.78409249  0.31545334  0.62670599    -0.53400
C9          C  0.83812933  0.46461441  0.71417139     0.80400
O10         O  0.75723380  0.35449092  0.69064855    -0.55700
O11         O  0.87045214  0.32363663  0.71921042    -0.54200
O12         O  0.80972844  0.39294592  0.56435096    -0.54200
O13         O  0.86733415  0.43095450  0.72151894    -0.53400
O14         O  0.65449362  0.09571915  0.68946236    -0.54600
C15         C  0.55758443  0.13626481  0.53328660     0.78100
O16         O  0.55679515  0.12915718  0.72068011    -0.55700
C17         C  0.63807764  0.05603986  0.67645723     0.78000
C18         C  0.66707651  0.21805457  0.63244267     0.80400
Cd19       Cd  0.59685532  0.14355702  0.63734844     1.37500
O20         O  0.53347109  0.15237883  0.56983939    -0.54600
O21         O  0.66983901  0.18084991  0.60690005    -0.53400
C22         C  0.51973246  0.15300166  0.70913322     0.80400
O23         O  0.63067353  0.22230702  0.66036712    -0.55700
O24         O  0.59922465  0.12196737  0.54491660    -0.54200
O25         O  0.60375696  0.05672534  0.64400599    -0.54200
O26         O  0.51982345  0.17568859  0.66619507    -0.53400
O27         O  0.56977828  0.80330128  0.38910364    -0.54600
C28         C  0.70270415  0.87709196  0.29477204     0.78100
O29         O  0.65976223  0.72751806  0.28856360    -0.55700
C30         C  0.59406704  0.81045043  0.42977979     0.78000
C31         C  0.56407041  0.82067521  0.25034436     0.80400
Cd32       Cd  0.63776799  0.80366263  0.32828692     1.37500
O33         O  0.67084173  0.88518366  0.32774026    -0.54600
O34         O  0.56311152  0.78334541  0.27877318    -0.53400
C35         C  0.68966101  0.71540609  0.32364952     0.80400
O36         O  0.59897142  0.84805917  0.25713647    -0.55700
O37         O  0.70771003  0.83457354  0.28204049    -0.54200
O38         O  0.63847990  0.81569843  0.42386398    -0.54200
O39         O  0.69341822  0.74254176  0.36157792    -0.53400
O40         O  0.89932325  0.53740560  0.42627447    -0.54600
C41         C  0.94711994  0.60653504  0.30206571     0.78100
O42         O  0.89170289  0.50978464  0.26613061    -0.55700
C43         C  0.87331017  0.50180302  0.43604789     0.78000
C44         C  0.78921984  0.62440918  0.34951005     0.80400
Cd45       Cd  0.86411460  0.55514637  0.33871829     1.37500
O46         O  0.90545264  0.61639060  0.28541120    -0.54600
O47         O  0.82140378  0.61735337  0.38359197    -0.53400
C48         C  0.85701228  0.48143768  0.26382761     0.80400
O49         O  0.79059378  0.59871189  0.31018383    -0.55700
O50         O  0.95032839  0.57471065  0.33748565    -0.54200
O51         O  0.84372413  0.49074536  0.40100943    -0.54200
O52         O  0.82311517  0.48847571  0.29447988    -0.53400
O53         O  0.42030936  0.87335963  0.64154111    -0.54600
C54         C  0.50194324  0.80934709  0.53908761     0.78100
O55         O  0.49994133  0.82190388  0.70879302    -0.55700
C56         C  0.39467695  0.86354764  0.68046080     0.78000
C57         C  0.38956716  0.71267706  0.62337310     0.80400
Cd58       Cd  0.45362896  0.79150275  0.63681214     1.37500
O59         O  0.45849934  0.81979537  0.54500205    -0.54600
O60         O  0.39273641  0.74666861  0.59097197    -0.53400
C61         C  0.52950602  0.78812818  0.71296523     0.80400
O62         O  0.41832959  0.71288055  0.66166885    -0.55700
O63         O  0.52377972  0.79243735  0.57863790    -0.54200
O64         O  0.39489834  0.82100430  0.69666727    -0.54200
O65         O  0.52334601  0.75393483  0.68281065    -0.53400
O66         O  0.16501652  0.55673134  0.55917837    -0.54600
C67         C  0.13854317  0.62556359  0.68154078     0.78100
O68         O  0.22980967  0.48023134  0.66756063    -0.55700
C69         C  0.19623581  0.53085097  0.53906311     0.78000
C70         C  0.29749032  0.61570482  0.64938051     0.80400
Cd71       Cd  0.20975940  0.56305547  0.64315508     1.37500
O72         O  0.13131422  0.60297244  0.64042361    -0.54600
O73         O  0.26740935  0.62234598  0.61283978    -0.53400
C74         C  0.20037943  0.47608025  0.70384171     0.80400
O75         O  0.28749619  0.58406416  0.68301008    -0.55700
O76         O  0.17939834  0.62150901  0.70260983    -0.54200
O77         O  0.23315954  0.52180132  0.56626272    -0.54200
O78         O  0.17609105  0.51239686  0.71332341    -0.53400
O79         O  0.16552557  0.35583029  0.27630819    -0.54600
C80         C  0.21925504  0.46158751  0.41651072     0.78100
O81         O  0.28953459  0.37706027  0.28939743    -0.55700
C82         C  0.12745768  0.36393934  0.30025945     0.78000
C83         C  0.21129276  0.49017672  0.24079853     0.80400
Cd84       Cd  0.21412750  0.41504167  0.31882961     1.37500
O85         O  0.18019023  0.45962733  0.39140741    -0.54600
O86         O  0.23999495  0.49134556  0.27892903    -0.53400
C87         C  0.28787480  0.34375312  0.32330695     0.80400
O88         O  0.18771991  0.45254097  0.23595870    -0.55700
O89         O  0.25487408  0.44193917  0.39679060    -0.54200
O90         O  0.13005484  0.39348989  0.33616829    -0.54200
O91         O  0.25302790  0.34402222  0.35373483    -0.53400
O92         O  0.43312858  0.15701413  0.40141376    -0.54600
C93         C  0.38943046  0.09143038  0.26741962     0.78100
O94         O  0.42310077  0.24922962  0.26812884    -0.55700
C95         C  0.47695600  0.15242319  0.41274830     0.78000
C96         C  0.52843157  0.16837235  0.24473859     0.80400
Cd97       Cd  0.44423791  0.16945395  0.30686211     1.37500
O98         O  0.41828169  0.08568898  0.30525324    -0.54600
O99         O  0.52488799  0.19649601  0.28183951    -0.53400
C100        C  0.39052056  0.25725042  0.30007207     0.80400
O101        O  0.49211214  0.14365749  0.23445881    -0.55700
O102        O  0.38352647  0.13337636  0.25037368    -0.54200
O103        O  0.50549936  0.15474801  0.37534149    -0.54200
O104        O  0.38448427  0.22597205  0.33524996    -0.53400
O105        O  0.73025896  0.93955755  0.91004360    -0.54600
C106        C  0.61661087  0.83940862  0.80960505     0.78100
O107        O  0.73014459  0.96436341  0.80426071    -0.55700
C108        C  0.69522766  0.93316401  0.93977242     0.78000
C109        C  0.77646430  0.81634847  0.84600381     0.80400
Cd110      Cd  0.70180441  0.88702340  0.84187799     1.37500
O111        O  0.61621673  0.86918040  0.84534002    -0.54600
O112        O  0.74615693  0.81943141  0.88146185    -0.53400
C113        C  0.69923672  0.96600825  0.76808200     0.80400
O114        O  0.77358804  0.84701837  0.80939324    -0.55700
O115        O  0.65693050  0.82869288  0.79180871    -0.54200
O116        O  0.66382986  0.90403800  0.92527299    -0.54200
O117        O  0.67325659  0.92992164  0.76367263    -0.53400
O118        O  0.87868311  0.60236892  0.77164888    -0.54600
C119        C  0.99301000  0.64991476  0.90323214     0.78100
O120        O  0.97408365  0.64377865  0.71706703    -0.55700
C121        C  0.89930107  0.56420668  0.78603486     0.78000
C122        C  0.87577670  0.73136101  0.80738635     0.80400
Cd123      Cd  0.94340751  0.65438371  0.80497835     1.37500
O124        O  0.96983529  0.61515895  0.88623836    -0.54600
O125        O  0.87852687  0.70042907  0.84371970    -0.53400
C126        C  0.01594889  0.65732743  0.72731687     0.80400
O127        O  0.90380118  0.72648706  0.77002886    -0.55700
O128        O  0.99258771  0.68751759  0.87536193    -0.54200
O129        O  0.93789408  0.56814000  0.81135906    -0.54200
O130        O  0.02308092  0.67389907  0.77171288    -0.53400
O131        O  0.62869225  0.07733022  0.13547896    -0.54600
C132        C  0.71927176  0.01656677  0.05204962     0.78100
O133        O  0.79203311  0.10512651  0.17001726    -0.55700
C134        C  0.62523943  0.11116633  0.16623556     0.78000
C135        C  0.72492322  0.99742638  0.23375464     0.80400
Cd136      Cd  0.71563179  0.06588339  0.14841594     1.37500
O137        O  0.75351283  0.04157836  0.06803706    -0.54600
O138        O  0.73781675  0.98766405  0.18857127    -0.53400
C139        C  0.78533988  0.13963085  0.13825615     0.80400
O140        O  0.71232257  0.03963785  0.24044500    -0.55700
O141        O  0.68254363  0.01483036  0.08000470    -0.54200
O142        O  0.66370428  0.12591672  0.18607891    -0.54200
O143        O  0.74730615  0.13931623  0.11136705    -0.53400
O144        O  0.00390548  0.27951709  0.07464428    -0.54600
C145        C  0.90826892  0.39183287  0.17368197     0.78100
O146        O  0.92934142  0.22631891  0.18181066    -0.55700
C147        C  0.98913494  0.30965566  0.04101513     0.78000
C148        C  0.03485700  0.30719830  0.21383496     0.80400
Cd149      Cd  0.95281594  0.30469396  0.14535041     1.37500
O150        O  0.94305504  0.39072292  0.14314148    -0.54600
O151        O  0.99485739  0.32262683  0.22786278    -0.53400
C152        C  0.89143616  0.22321911  0.15505935     0.80400
O153        O  0.03587191  0.28777722  0.17045435    -0.55700
O154        O  0.89133118  0.35232381  0.18862050    -0.54200
O155        O  0.95602893  0.33689413  0.05470091    -0.54200
O156        O  0.88215127  0.25744809  0.12390725    -0.53400
O157        O  0.30223680  0.01566850  0.89361314    -0.54600
C158        C  0.42888848  0.10288116  0.80148838     0.78100
O159        O  0.36363566  0.02435848  0.72793479    -0.52500
C160        C  0.33868518  0.99855155  0.91669903     0.78000
C161        C  0.26275137  0.11034254  0.81213743     0.80400
Cd162      Cd  0.34394996  0.04791073  0.81693623     1.37500
O163        O  0.42748005  0.07059829  0.83640664    -0.54600
O164        O  0.29923506  0.11859562  0.83996198    -0.53400
C165        C  0.35570618  0.98085415  0.73536626     0.80400
O166        O  0.26334328  0.07268259  0.78667263    -0.55700
O167        O  0.38989474  0.11324820  0.77865948    -0.54200
O168        O  0.37811417  0.00436885  0.89412404    -0.54200
O169        O  0.33789822  0.96896240  0.77848896    -0.53400
O170        O  0.16140611  0.34163917  0.77109571    -0.54600
C171        C  0.06496155  0.28576406  0.92189819     0.78100
O172        O  0.07580494  0.29294505  0.73147946    -0.55700
C173        C  0.15040955  0.37934529  0.79327930     0.78000
C174        C  0.18306989  0.21913484  0.82882325     0.80400
Cd175      Cd  0.10872272  0.28945097  0.82131598     1.37500
O176        O  0.06281349  0.32285672  0.89326949    -0.54600
O177        O  0.18618626  0.25828451  0.85116558    -0.53400
C178        C  0.03346677  0.28365578  0.74402895     0.80400
O179        O  0.14529302  0.21201337  0.80255986    -0.55700
O180        O  0.08780628  0.25116517  0.90454159    -0.54200
O181        O  0.12294002  0.37520630  0.83154036    -0.54200
O182        O  0.02708645  0.27159551  0.79090289    -0.53400
O183        O  0.07479294  0.63991749  0.04689887    -0.54600
C184        C  0.14736329  0.58076555  0.15359975     0.78100
O185        O  0.14983998  0.74102327  0.15939248    -0.55700
C186        C  0.05934166  0.67925313  0.02875249     0.78000
C187        C  0.02927274  0.67017335  0.20624319     0.80400
Cd188      Cd  0.10408043  0.67099312  0.12947882     1.37500
O189        O  0.10927748  0.58370792  0.12668439    -0.54600
O190        O  0.07022522  0.65328118  0.21617290    -0.53400
C191        C  0.18144742  0.73807162  0.12494384     0.80400
O192        O  0.02445166  0.69267813  0.16351227    -0.55700
O193        O  0.16684607  0.61934848  0.16565874    -0.54200
O194        O  0.06499257  0.71479130  0.05686311    -0.54200
O195        O  0.17650520  0.70529800  0.09308094    -0.53400
O196        O  0.33039567  0.93445688  0.07084436    -0.54600
C197        C  0.44248474  0.83551219  0.18338323     0.78100
O198        O  0.37599441  0.92485082  0.23427587    -0.55700
C199        C  0.36714733  0.92920472  0.04376856     0.78000
C200        C  0.27483444  0.83361131  0.15260920     0.80400
Cd201      Cd  0.36037578  0.89031962  0.14865842     1.37500
O202        O  0.44638341  0.87456118  0.15856525    -0.54600
O203        O  0.30740275  0.82622623  0.12034312    -0.53400
C204        C  0.36579975  0.96694246  0.22083264     0.80400
O205        O  0.28166546  0.86720724  0.18317437    -0.55700
O206        O  0.40069740  0.81923226  0.18788557    -0.54200
O207        O  0.40074219  0.90504805  0.06448238    -0.54200
O208        O  0.34993722  0.97344634  0.17508515    -0.53400
C209        C  0.22288311  0.77000318  0.12151591    -0.13200
C210        C  0.23125885  0.80440891  0.15523587    -0.28400
H211        H  0.24808595  0.76396785  0.09080565     0.15800
H212        H  0.20612867  0.81078455  0.18589569     0.16400
C213        C  0.33460686  0.97393076  0.96766645    -0.13200
C214        C  0.37130681  0.95087183  0.99121506    -0.28400
H215        H  0.30025877  0.97519474  0.98651692     0.15800
H216        H  0.40540247  0.94857032  0.97200070     0.16400
C217        C  0.22173009  0.14314489  0.80882771    -0.13200
C218        C  0.22222244  0.18435639  0.83351570    -0.28400
H219        H  0.19128354  0.13386047  0.78468019     0.15800
H220        H  0.25295778  0.19361243  0.85726862     0.16400
C221        C  0.04255459  0.28226188  0.97315476    -0.13200
C222        C  0.00998190  0.31353035  0.98886277    -0.28400
H223        H  0.05261285  0.25233869  0.99834833     0.15800
H224        H  0.99863797  0.34264427  0.96317356     0.16400
C225        C  0.81919585  0.17904684  0.13237074    -0.13200
C226        C  0.85965649  0.18194077  0.16049637    -0.28400
H227        H  0.80984611  0.20715658  0.10445385     0.15800
H228        H  0.86923861  0.15402130  0.18853772     0.16400
C229        C  0.01909809  0.64591654  0.95302221    -0.13200
C230        C  0.03547832  0.68388001  0.97767076    -0.28400
H231        H  0.02335607  0.61081656  0.97077377     0.15800
H232        H  0.02930245  0.71920888  0.96121587     0.16400
C233        C  0.72295865  0.99083656  0.00335419    -0.13200
C234        C  0.69062078  0.95864091  0.98860902    -0.28400
H235        H  0.75388119  0.99795086  0.97951841     0.15800
H236        H  0.65992360  0.95104496  0.01261358     0.16400
C237        C  0.81238859  0.77811957  0.84737813    -0.13200
C238        C  0.84170976  0.77115438  0.80765669    -0.28400
H239        H  0.81350614  0.75416979  0.88102981     0.15800
H240        H  0.84033723  0.79495019  0.77388997     0.16400
C241        C  0.57833152  0.12969733  0.18086857    -0.13200
C242        C  0.57381953  0.16213967  0.21763078    -0.28400
H243        H  0.54692813  0.11184477  0.16595603     0.15800
H244        H  0.60516987  0.17993290  0.23275705     0.16400
C245        C  0.37545672  0.00630199  0.25580794    -0.13200
C246        C  0.36640739  0.05147180  0.24141440    -0.28400
H247        H  0.39546245  0.99835857  0.29137503     0.15800
H248        H  0.34634402  0.05932777  0.20586880     0.16400
C249        C  0.16590130  0.53474052  0.17323030    -0.13200
C250        C  0.20313994  0.53212308  0.20668633    -0.28400
H251        H  0.14467694  0.50344590  0.16578096     0.15800
H252        H  0.22367305  0.56369459  0.21486815     0.16400
C253        C  0.08158630  0.34302777  0.28423871    -0.13200
C254        C  0.07923824  0.31431773  0.24367837    -0.28400
H255        H  0.04913408  0.35662919  0.30085641     0.15800
H256        H  0.11190749  0.30134056  0.22693453     0.16400
C257        C  0.32344860  0.30538625  0.32811570    -0.13200
C258        C  0.35999837  0.29998003  0.29571913    -0.28400
H259        H  0.31780827  0.27912355  0.35894591     0.15800
H260        H  0.36590103  0.32561312  0.26435957     0.16400
C261        C  0.19358933  0.43046219  0.73156694    -0.13200
C262        C  0.16603184  0.42611078  0.77352715    -0.28400
H263        H  0.20913787  0.39923887  0.71489107     0.15800
H264        H  0.15104710  0.45736356  0.79069543     0.16400
C265        C  0.10066118  0.65222689  0.70676927    -0.13200
C266        C  0.05494190  0.64956694  0.69097988    -0.28400
H267        H  0.10941516  0.66748487  0.74387705     0.15800
H268        H  0.04602326  0.63315049  0.65455907     0.16400
C269        C  0.18973865  0.51118391  0.48707828    -0.13200
C270        C  0.22414895  0.48468202  0.46662042    -0.28400
H271        H  0.15632887  0.51748311  0.46613283     0.15800
H272        H  0.25775749  0.47940376  0.48752826     0.16400
C273        C  0.36780753  0.89930942  0.70856969    -0.13200
C274        C  0.37022303  0.94583191  0.69726340    -0.28400
H275        H  0.34981767  0.88715534  0.74345843     0.15800
H276        H  0.38872910  0.95838490  0.66287449     0.16400
C277        C  0.57089651  0.79059802  0.74865365    -0.13200
C278        C  0.57176641  0.82202747  0.78677736    -0.28400
H279        H  0.60278361  0.77076850  0.73958336     0.15800
H280        H  0.53922579  0.84048988  0.79658757     0.16400
C281        C  0.34119004  0.64445036  0.65371208    -0.13200
C282        C  0.35230107  0.67663885  0.61669841    -0.28400
H283        H  0.36265962  0.64125619  0.68901923     0.15800
H284        H  0.33035787  0.67965835  0.58169979     0.16400
C285        C  0.99028918  0.62836630  0.27936014    -0.13200
C286        C  0.98798433  0.66067709  0.24002657    -0.28400
H287        H  0.02457827  0.61340416  0.29127493     0.15800
H288        H  0.95362278  0.67513673  0.22762358     0.16400
C289        C  0.85823017  0.44027908  0.22996487    -0.13200
C290        C  0.89200001  0.43720482  0.19383718    -0.28400
H291        H  0.83582622  0.41004462  0.23943198     0.15800
H292        H  0.91341841  0.46811027  0.18412193     0.16400
C293        C  0.72902956  0.91523113  0.26749185    -0.13200
C294        C  0.71962158  0.96102284  0.27536959    -0.28400
H295        H  0.74925910  0.90549052  0.23384137     0.15800
H296        H  0.69957474  0.97081952  0.30911558     0.16400
C297        C  0.48387774  0.81202398  0.20946667    -0.13200
C298        C  0.52609097  0.83425016  0.21261487    -0.28400
H299        H  0.47790548  0.77962037  0.23203540     0.15800
H300        H  0.53119722  0.86730617  0.19090492     0.16400
C301        C  0.57228545  0.81100398  0.48171329    -0.13200
C302        C  0.52483264  0.81486181  0.48794814    -0.28400
H303        H  0.59570411  0.80700978  0.51545184     0.15800
H304        H  0.50171808  0.82084513  0.45425651     0.16400
C305        C  0.71994518  0.67292145  0.31942098    -0.13200
C306        C  0.75332798  0.66189680  0.35567959    -0.28400
H307        H  0.71689604  0.65233904  0.28461800     0.15800
H308        H  0.75631844  0.68286662  0.39021730     0.16400
C309        C  0.47670781  0.15107086  0.74128752    -0.13200
C310        C  0.47458443  0.12328791  0.78435450    -0.28400
H311        H  0.44415511  0.16608339  0.72433191     0.15800
H312        H  0.50708984  0.10806831  0.80117840     0.16400
C313        C  0.69141953  0.00897526  0.73523450    -0.13200
C314        C  0.65576786  0.01105211  0.69973296    -0.28400
H315        H  0.71146771  0.04061298  0.74429521     0.15800
H316        H  0.63586757  0.97927571  0.69084474     0.16400
C317        C  0.49362961  0.14636955  0.46703222    -0.13200
C318        C  0.53923943  0.13575368  0.47941377    -0.28400
H319        H  0.46815445  0.15241225  0.49744873     0.15800
H320        H  0.56436136  0.12831060  0.44905047     0.16400
C321        C  0.94817371  0.29051344  0.72351351    -0.13200
C322        C  0.99336032  0.29140672  0.70702602    -0.28400
H323        H  0.94071938  0.27681751  0.76227749     0.15800
H324        H  0.00128803  0.30612639  0.66882287     0.16400
C325        C  0.84479931  0.51046374  0.73940044    -0.13200
C326        C  0.88196197  0.51705597  0.77189755    -0.28400
H327        H  0.82255494  0.54019160  0.72668856     0.15800
H328        H  0.90411116  0.48706226  0.78408427     0.16400
C329        C  0.84650349  0.44008012  0.49841234    -0.13200
C330        C  0.87683396  0.47533861  0.48618209    -0.28400
H331        H  0.81923209  0.42985091  0.47056950     0.15800
H332        H  0.90315364  0.48669808  0.51451117     0.16400
C333        C  0.70940711  0.28985198  0.66134742    -0.13200
C334        C  0.70547371  0.25334774  0.62939457    -0.28400
H335        H  0.68253714  0.29568415  0.69037402     0.15800
H336        H  0.73309865  0.24734215  0.60122118     0.16400
loop_ 
_geom_bond_atom_site_label_1 
_geom_bond_atom_site_label_2 
_geom_bond_distance 
_geom_bond_site_symmetry_2 
_ccdc_geom_bond_type 
O1            C4   1.266       .  A
O1           Cd6   2.490       .  S
C2           O11   1.262       .  A
C2            O7   1.268       .  A
C2          C321   1.474       .  S
O3            C9   1.265       .  A
O3           Cd6   2.501       .  S
C4           O12   1.263       .  A
C4          C329   1.476       .  S
C5           O10   1.267       .  A
C5            O8   1.266       .  A
C5          C333   1.477       .  S
Cd6          O13   2.443       .  S
Cd6          O12   2.462       .  S
Cd6          O11   2.443       .  S
Cd6           O7   2.501       .  S
Cd6          O10   2.487       .  S
Cd6           O8   2.433       .  S
C9           O13   1.262       .  A
C9          C325   1.477       .  S
O14          C17   1.265       .  A
O14         Cd19   2.465       .  S
C15          O24   1.264       .  A
C15          O20   1.264       .  A
C15         C318   1.476       .  S
O16          C22   1.265       .  A
O16         Cd19   2.467       .  S
C17          O25   1.266       .  A
C17         C314   1.473       .  S
C18          O23   1.266       .  A
C18          O21   1.260       .  A
C18         C334   1.470       .  S
Cd19         O26   2.474       .  S
Cd19         O25   2.462       .  S
Cd19         O24   2.482       .  S
Cd19         O20   2.478       .  S
Cd19         O23   2.504       .  S
Cd19         O21   2.434       .  S
C22          O26   1.265       .  A
C22         C309   1.475       .  S
O27          C30   1.264       .  A
O27         Cd32   2.488       .  S
C28          O37   1.263       .  A
C28          O33   1.268       .  A
C28         C293   1.476       .  S
O29          C35   1.265       .  A
O29         Cd32   2.490       .  S
C30          O38   1.265       .  A
C30         C301   1.482       .  S
C31          O36   1.262       .  A
C31          O34   1.269       .  A
C31         C298   1.475       .  S
Cd32         O39   2.454       .  S
Cd32         O38   2.501       .  S
Cd32         O37   2.460       .  S
Cd32         O33   2.485       .  S
Cd32         O36   2.437       .  S
Cd32         O34   2.512       .  S
C35          O39   1.264       .  A
C35         C305   1.477       .  S
O40          C43   1.266       .  A
O40         Cd45   2.491       .  S
C41          O50   1.267       .  A
C41          O46   1.266       .  A
C41         C285   1.481       .  S
O42          C48   1.263       .  A
O42         Cd45   2.435       .  S
C43          O51   1.264       .  A
C43         C330   1.479       .  S
C44          O49   1.266       .  A
C44          O47   1.263       .  A
C44         C306   1.473       .  S
Cd45         O52   2.503       .  S
Cd45         O51   2.469       .  S
Cd45         O50   2.481       .  S
Cd45         O46   2.481       .  S
Cd45         O49   2.490       .  S
Cd45         O47   2.453       .  S
C48          O52   1.265       .  A
C48         C289   1.475       .  S
O53          C56   1.269       .  A
O53         Cd58   2.500       .  S
C54          O63   1.265       .  A
C54          O59   1.265       .  A
C54         C302   1.481       .  S
O55          C61   1.264       .  A
O55         Cd58   2.429       .  S
C56          O64   1.262       .  A
C56         C273   1.473       .  S
C57          O62   1.267       .  A
C57          O60   1.260       .  A
C57         C282   1.472       .  S
Cd58         O65   2.492       .  S
Cd58         O64   2.437       .  S
Cd58         O63   2.493       .  S
Cd58         O59   2.487       .  S
Cd58         O62   2.505       .  S
Cd58         O60   2.439       .  S
C61          O65   1.268       .  A
C61         C277   1.474       .  S
O66          C69   1.266       .  A
O66         Cd71   2.500       .  S
C67          O76   1.264       .  A
C67          O72   1.268       .  A
C67         C265   1.472       .  S
O68          C74   1.261       .  A
O68         Cd71   2.469       .  S
C69          O77   1.264       .  A
C69         C269   1.476       .  S
C70          O75   1.264       .  A
C70          O73   1.266       .  A
C70         C281   1.476       .  S
Cd71         O78   2.477       .  S
Cd71         O77   2.429       .  S
Cd71         O76   2.447       .  S
Cd71         O72   2.469       .  S
Cd71         O75   2.476       .  S
Cd71         O73   2.451       .  S
C74          O78   1.262       .  A
C74         C261   1.471       .  S
O79          C82   1.265       .  A
O79         Cd84   2.435       .  S
C80          O89   1.263       .  A
C80          O85   1.266       .  A
C80         C270   1.470       .  S
O81          C87   1.269       .  A
O81         Cd84   2.507       .  S
C82          O90   1.266       .  A
C82         C253   1.475       .  S
C83          O88   1.261       .  A
C83          O86   1.263       .  A
C83         C250   1.473       .  S
Cd84         O91   2.427       .  S
Cd84         O90   2.480       .  S
Cd84         O89   2.440       .  S
Cd84         O85   2.487       .  S
Cd84         O88   2.465       .  S
Cd84         O86   2.478       .  S
C87          O91   1.263       .  A
C87         C257   1.473       .  S
O92          C95   1.264       .  A
O92         Cd97   2.482       .  S
C93         O102   1.263       .  A
C93          O98   1.266       .  A
C93         C246   1.475       .  S
O94         C100   1.264       .  A
O94         Cd97   2.507       .  S
C95         O103   1.264       .  A
C95         C317   1.476       .  S
C96         O101   1.265       .  A
C96          O99   1.267       .  A
C96         C242   1.474       .  S
Cd97        O104   2.447       .  S
Cd97        O103   2.473       .  S
Cd97        O102   2.465       .  S
Cd97         O98   2.479       .  S
Cd97        O101   2.445       .  S
Cd97         O99   2.477       .  S
C100        O104   1.263       .  A
C100        C258   1.480       .  S
O105        C108   1.266       .  A
O105       Cd110   2.459       .  S
C106        O115   1.266       .  A
C106        O111   1.266       .  A
C106        C278   1.471       .  S
O107        C113   1.264       .  A
O107       Cd110   2.503       .  S
C108        O116   1.266       .  A
C108        C234   1.477       .  S
C109        O114   1.266       .  A
C109        O112   1.263       .  A
C109        C237   1.475       .  S
Cd110       O117   2.450       .  S
Cd110       O116   2.475       .  S
Cd110       O115   2.459       .  S
Cd110       O111   2.455       .  S
Cd110       O114   2.475       .  S
Cd110       O112   2.467       .  S
C113        O117   1.261       .  A
C113        C313   1.476   1_565  S
O118        C121   1.267       .  A
O118       Cd123   2.495       .  S
C119        O128   1.267       .  A
C119        O124   1.264       .  A
C119        C229   1.471   1_655  S
O120        C126   1.262   1_655  A
O120       Cd123   2.466       .  S
C121        O129   1.262       .  A
C121        C326   1.473       .  S
C122        O127   1.264       .  A
C122        O125   1.266       .  A
C122        C238   1.474       .  S
Cd123       O130   2.463   1_655  S
Cd123       O129   2.444       .  S
Cd123       O128   2.471       .  S
Cd123       O124   2.450       .  S
Cd123       O127   2.462       .  S
Cd123       O125   2.474       .  S
C126        O130   1.264       .  A
C126        C266   1.472       .  S
O131        C134   1.265       .  A
O131       Cd136   2.474       .  S
C132        O141   1.267       .  A
C132        O137   1.264       .  A
C132        C233   1.475   1_545  S
O133        C139   1.268       .  A
O133       Cd136   2.477       .  S
C134        O142   1.263       .  A
C134        C241   1.473       .  S
C135        O140   1.261   1_565  A
C135        O138   1.264       .  A
C135        C294   1.476       .  S
Cd136       O143   2.436       .  S
Cd136       O142   2.464       .  S
Cd136       O141   2.482       .  S
Cd136       O137   2.460       .  S
Cd136       O140   2.473       .  S
Cd136       O138   2.489   1_545  S
C139        O143   1.264       .  A
C139        C225   1.471       .  S
O144        C147   1.264   1_455  A
O144       Cd149   2.458   1_455  S
C145        O154   1.267       .  A
C145        O150   1.264       .  A
C145        C290   1.472       .  S
O146        C152   1.263       .  A
O146       Cd149   2.477       .  S
C147        O155   1.266       .  A
C147        C222   1.478   1_654  S
C148        O153   1.262       .  A
C148        O151   1.264   1_455  A
C148        C254   1.471       .  S
Cd149       O156   2.456       .  S
Cd149       O155   2.491       .  S
Cd149       O154   2.483       .  S
Cd149       O150   2.445       .  S
Cd149       O153   2.450   1_655  S
Cd149       O151   2.484       .  S
C152        O156   1.265       .  A
C152        C226   1.474       .  S
O157        C160   1.264   1_545  A
O157       Cd162   2.468       .  S
C158        O167   1.264       .  A
C158        O163   1.266       .  A
C158        C310   1.475       .  S
O159        C165   1.260   1_545  A
O159       Cd162   2.480       .  S
C160        O168   1.266   1_565  A
C160        C213   1.478       .  S
C161        O166   1.267       .  A
C161        O164   1.267       .  A
C161        C217   1.476       .  S
Cd162       O169   2.472   1_545  S
Cd162       O168   2.491       .  S
Cd162       O167   2.448       .  S
Cd162       O163   2.477       .  S
Cd162       O166   2.473       .  S
Cd162       O164   2.449       .  S
C165        O169   1.264       .  A
C165        C274   1.476       .  S
O170        C173   1.264       .  A
O170       Cd175   2.449       .  S
C171        O180   1.264       .  A
C171        O176   1.267       .  A
C171        C221   1.475       .  S
O172        C178   1.261       .  A
O172       Cd175   2.483       .  S
C173        O181   1.265       .  A
C173        C262   1.473       .  S
C174        O179   1.268       .  A
C174        O177   1.265       .  A
C174        C218   1.473       .  S
Cd175       O182   2.466       .  S
Cd175       O181   2.478       .  S
Cd175       O180   2.459       .  S
Cd175       O176   2.483       .  S
Cd175       O179   2.478       .  S
Cd175       O177   2.448       .  S
C178        O182   1.264       .  A
C178        C322   1.477   1_455  S
O183        C186   1.267       .  A
O183       Cd188   2.459       .  S
C184        O193   1.265       .  A
C184        O189   1.266       .  A
C184        C249   1.474       .  S
O185        C191   1.269       .  A
O185       Cd188   2.495       .  S
C186        O194   1.264       .  A
C186        C230   1.472   1_554  S
C187        O192   1.264       .  A
C187        O190   1.263       .  A
C187        C286   1.480   1_455  S
Cd188       O195   2.441       .  S
Cd188       O194   2.460       .  S
Cd188       O193   2.442       .  S
Cd188       O189   2.474       .  S
Cd188       O192   2.493       .  S
Cd188       O190   2.483       .  S
C191        O195   1.262       .  A
C191        C209   1.474       .  S
O196        C199   1.265       .  A
O196       Cd201   2.471       .  S
C197        O206   1.265       .  A
C197        O202   1.266       .  A
C197        C297   1.480       .  S
O198        C204   1.261       .  A
O198       Cd201   2.475       .  S
C199        O207   1.265       .  A
C199        C214   1.480   1_554  S
C200        O205   1.265       .  A
C200        O203   1.266       .  A
C200        C210   1.477       .  S
Cd201       O208   2.483       .  S
Cd201       O207   2.491       .  S
Cd201       O206   2.487       .  S
Cd201       O202   2.459       .  S
Cd201       O205   2.474       .  S
Cd201       O203   2.464       .  S
C204        O208   1.264       .  A
C204        C245   1.475   1_565  S
C209        C210   1.342       .  D
C209        H211   1.087       .  S
C210        H212   1.086       .  S
C213        C214   1.345       .  D
C213        H215   1.087       .  S
C214        H216   1.086       .  S
C217        C218   1.343       .  D
C217        H219   1.086       .  S
C218        H220   1.087       .  S
C221        C222   1.345       .  D
C221        H223   1.087       .  S
C222        H224   1.087   1_455  S
C225        C226   1.341       .  D
C225        H227   1.087       .  S
C226        H228   1.087       .  S
C229        C230   1.341       .  D
C229        H231   1.087       .  S
C230        H232   1.087       .  S
C233        C234   1.344   1_554  D
C233        H235   1.087   1_554  S
C234        H236   1.086   1_556  S
C237        C238   1.343       .  D
C237        H239   1.087       .  S
C238        H240   1.086       .  S
C241        C242   1.345       .  D
C241        H243   1.086       .  S
C242        H244   1.086       .  S
C245        C246   1.342       .  D
C245        H247   1.087   1_545  S
C246        H248   1.087       .  S
C249        C250   1.346       .  D
C249        H251   1.087       .  S
C250        H252   1.087       .  S
C253        C254   1.344       .  D
C253        H255   1.086       .  S
C254        H256   1.086       .  S
C257        C258   1.344       .  D
C257        H259   1.087       .  S
C258        H260   1.086       .  S
C261        C262   1.343       .  D
C261        H263   1.086       .  S
C262        H264   1.086       .  S
C265        C266   1.342       .  D
C265        H267   1.087       .  S
C266        H268   1.086       .  S
C269        C270   1.344       .  D
C269        H271   1.086       .  S
C270        H272   1.087       .  S
C273        C274   1.341       .  D
C273        H275   1.087       .  S
C274        H276   1.087       .  S
C277        C278   1.344       .  D
C277        H279   1.086       .  S
C278        H280   1.087       .  S
C281        C282   1.342       .  D
C281        H283   1.086       .  S
C282        H284   1.087       .  S
C285        C286   1.348       .  D
C285        H287   1.086   1_655  S
C286        H288   1.086       .  S
C289        C290   1.344       .  D
C289        H291   1.086       .  S
C290        H292   1.087       .  S
C293        C294   1.342       .  D
C293        H295   1.086       .  S
C294        H296   1.086       .  S
C297        C298   1.343       .  D
C297        H299   1.086       .  S
C298        H300   1.087       .  S
C301        C302   1.347       .  D
C301        H303   1.086       .  S
C302        H304   1.086       .  S
C305        C306   1.344       .  D
C305        H307   1.086       .  S
C306        H308   1.087       .  S
C309        C310   1.346       .  D
C309        H311   1.087       .  S
C310        H312   1.086       .  S
C313        C314   1.346       .  D
C313        H315   1.086       .  S
C314        H316   1.086   1_545  S
C317        C318   1.345       .  D
C317        H319   1.086       .  S
C318        H320   1.087       .  S
C321        C322   1.343       .  D
C321        H323   1.087       .  S
C322        H324   1.086   1_655  S
C325        C326   1.344       .  D
C325        H327   1.086       .  S
C326        H328   1.087       .  S
C329        C330   1.345       .  D
C329        H331   1.087       .  S
C330        H332   1.086       .  S
C333        C334   1.343       .  D
C333        H335   1.086       .  S
C334        H336   1.087       .  S
