geometry optimzed in LAMMPS
_audit_creation_date              2020-12-01 
_audit_creation_method            'lammps2cif' 
_symmetry_space_group_name_H-M    'P1' 
_symmetry_Int_Tables_number       1 
_symmetry_cell_setting            triclinic 
loop_ 
_symmetry_equiv_pos_as_xyz 
  x,y,z 
_cell_length_a                    30.01055755 
_cell_length_b                    30.012187534975308 
_cell_length_c                    38.33046469014315 
_cell_angle_alpha                 89.99458403361278 
_cell_angle_beta                  89.8404593802752 
_cell_angle_gamma                 119.9759722442697 
loop_ 
_atom_site_label 
_atom_site_type_symbol 
_atom_site_fract_x 
_atom_site_fract_y 
_atom_site_fract_z 
_atom_site_charge 
O1          O  0.79805961  0.84334436  0.34579273    -0.72400
O2          O  0.66388859  0.71169850  0.34663661    -0.73400
O3          O  0.75307955  0.75478634  0.38995534    -0.62000
O4          O  0.71083501  0.80001227  0.30328970    -0.70400
O5          O  0.74240589  0.76075368  0.27096398    -0.69900
O6          O  0.78990050  0.72111800  0.35720216    -0.61200
O7          O  0.69844262  0.67351119  0.31621182    -0.73700
O8          O  0.83264024  0.80786270  0.31252781    -0.72500
Cu9        Cu  0.73016871  0.77848365  0.34766168     1.04600
Cu10       Cu  0.76689208  0.73931325  0.31309908     1.04300
C11         C  0.83599593  0.84691015  0.32838455     0.93800
C12         C  0.65975467  0.67194659  0.33152919     0.93000
C13         C  0.77947078  0.73212556  0.38717918     0.85100
C14         C  0.72085499  0.78813131  0.27344970     0.91400
O15         O  0.21092889  0.29040552  0.35788566    -0.72400
O16         O  0.25705626  0.25401285  0.26867636    -0.73400
O17         O  0.16774263  0.20576451  0.31162936    -0.62000
O18         O  0.30163907  0.34015128  0.31566522    -0.70400
O19         O  0.33697623  0.30091626  0.34381069    -0.69900
O20         O  0.20290126  0.16900985  0.34289607    -0.61200
O21         O  0.28888285  0.21348404  0.29919211    -0.73700
O22         O  0.24863333  0.25563096  0.38839093    -0.72500
Cu23       Cu  0.23336125  0.27420553  0.31238587     1.04600
Cu24       Cu  0.27076953  0.23380550  0.34472181     1.04300
C25         C  0.22178000  0.27792394  0.38719126     0.93800
C26         C  0.27772603  0.22568302  0.26988369     0.93000
C27         C  0.16467539  0.16616558  0.32645335     0.85100
C28         C  0.34060040  0.34132981  0.33006601     0.91400
O29         O  0.91158741  0.71314464  0.63821457    -0.72400
O30         O  0.99738166  0.74801408  0.72552687    -0.73400
O31         O  0.95395227  0.79661453  0.68554687    -0.62000
O32         O  0.95405202  0.66312520  0.67793688    -0.70400
O33         O  0.02709896  0.70196458  0.64787101    -0.69900
O34         O  0.02504461  0.83531428  0.65337380    -0.61200
O35         O  0.06845655  0.78848765  0.69352477    -0.73700
O36         O  0.98288665  0.74922503  0.60622821    -0.72500
Cu37       Cu  0.95177362  0.72870927  0.68288970     1.04600
Cu38       Cu  0.02827073  0.76989560  0.64901120     1.04300
C39         C  0.93379854  0.72603900  0.60846048     0.93800
C40         C  0.04640879  0.77537587  0.72328572     0.93000
C41         C  0.98975124  0.83707492  0.67106024     0.85100
C42         C  0.99074082  0.66150259  0.66212504     0.91400
O43         O  0.98552790  0.31160326  0.65560439    -0.72400
O44         O  0.98694201  0.17846271  0.66328227    -0.73400
O45         O  0.94743028  0.22875106  0.70387509    -0.62000
O46         O  0.02566945  0.26059709  0.61357551    -0.70400
O47         O  0.09927948  0.29754934  0.64273224    -0.69900
O48         O  0.02064950  0.27042768  0.73322088    -0.61200
O49         O  0.05998183  0.21791155  0.69303703    -0.73700
O50         O  0.06082890  0.35194901  0.68262085    -0.72500
Cu51       Cu  0.98393193  0.24369468  0.65800323     1.04600
Cu52       Cu  0.06279320  0.28612444  0.68890933     1.04300
C53         C  0.02304256  0.35281747  0.66798071     0.93800
C54         C  0.02316309  0.17703410  0.67981949     0.93000
C55         C  0.97152056  0.24342856  0.73276494     0.85100
C56         C  0.07475851  0.28255081  0.61395815     0.91400
O57         O  0.70146060  0.03632699  0.00947425    -0.72400
O58         O  0.83324302  0.03261753  0.00953537    -0.73400
O59         O  0.79051878  0.07742571  0.96643200    -0.62000
O60         O  0.74495075  0.99113090  0.05315660    -0.70400
O61         O  0.71179588  0.92013423  0.02107029    -0.69900
O62         O  0.75076558  0.00669589  0.93423773    -0.61200
O63         O  0.79767213  0.96278461  0.97627218    -0.73700
O64         O  0.66357947  0.96289882  0.97999622    -0.72500
Cu65       Cu  0.76863658  0.03681092  0.01077505     1.04600
Cu66       Cu  0.72949172  0.96067974  0.97667008     1.04300
C67         C  0.66153114  0.99977891  0.99515078     0.93800
C68         C  0.83634533  0.99732634  0.99297654     0.93000
C69         C  0.77825974  0.05562491  0.93664728     0.85100
C70         C  0.72288605  0.94217144  0.05080112     0.91400
O71         O  0.28376590  0.93480183  0.02049468    -0.72400
O72         O  0.14824881  0.93185760  0.02057099    -0.73400
O73         O  0.19566434  0.89347446  0.97633367    -0.62000
O74         O  0.23548144  0.97444350  0.06591945    -0.70400
O75         O  0.26964339  0.04725333  0.03570319    -0.69900
O76         O  0.23326981  0.96634186  0.94607419    -0.61200
O77         O  0.18433393  0.00491715  0.99042761    -0.73700
O78         O  0.32013971  0.00905636  0.99184997    -0.72500
Cu79       Cu  0.21486506  0.93117964  0.02198732     1.04600
Cu80       Cu  0.25330438  0.00942266  0.98997578     1.04300
C81         C  0.32319494  0.97216000  0.00605816     0.93800
C82         C  0.14497218  0.96771453  0.00499250     0.93000
C83         C  0.20676130  0.91720291  0.94713768     0.85100
C84         C  0.25734804  0.02355814  0.06494043     0.91400
C85         C  0.00870108  0.94694210  0.99624827     0.16500
C86         C  0.95606599  0.92813323  0.99057058    -0.32500
C87         C  0.93830549  0.96341427  0.99254980     0.20900
C88         C  0.97134915  0.01481727  0.00028192     0.03100
C89         C  0.02392234  0.03370141  0.00530070    -0.22300
C90         C  0.04174453  0.99872111  0.00286209     0.12300
S91         S  0.03815212  0.91068486  0.99567698    -0.05900
C92         C  0.09549289  0.96629284  0.00348822    -0.09400
C93         C  0.09165145  0.01013512  0.00658377    -0.26000
S94         S  0.94232402  0.05104994  0.00348067    -0.03200
C95         C  0.88501118  0.99672977  0.99364429    -0.16600
C96         C  0.88856557  0.95287468  0.98823311    -0.14600
H97         H  0.93016005  0.88789788  0.98505648     0.20700
H98         H  0.04977803  0.07387753  0.01103095     0.16800
H99         H  0.12369894  0.04827507  0.01149715     0.18700
H100        H  0.85636427  0.91519109  0.98244520     0.12600
C101        C  0.54514505  0.02023232  0.99768347     0.16500
C102        C  0.51146969  0.03992978  0.99770561    -0.32500
C103        C  0.45860335  0.00475429  0.00070209     0.20900
C104        C  0.44013903  0.95238159  0.00406757     0.03100
C105        C  0.47372471  0.93261074  0.00337614    -0.22300
C106        C  0.52649800  0.96769514  0.99982726     0.12300
S107        S  0.61066274  0.05655212  0.99532764    -0.05900
C108        C  0.61281166  0.00027715  0.99622911    -0.09400
C109        C  0.56516095  0.95595528  0.99850321    -0.26000
S110        S  0.37491439  0.91626859  0.00879054    -0.03200
C111        C  0.37226843  0.97213620  0.00533536    -0.16600
C112        C  0.41973628  0.01628153  0.00099358    -0.14600
H113        H  0.52584987  0.08086863  0.99561613     0.20700
H114        H  0.45936141  0.89168752  0.00559789     0.16800
H115        H  0.55925217  0.91732222  0.99980949     0.19300
H116        H  0.42549779  0.05475177  0.99847834     0.12600
C117        C  0.82097298  0.11948140  0.84691714     0.16500
C118        C  0.82879737  0.12989807  0.81111920    -0.32500
C119        C  0.87556425  0.17231175  0.80052597     0.20900
C120        C  0.91275166  0.20346374  0.82442787     0.03100
C121        C  0.90413049  0.19414587  0.86034278    -0.22300
C122        C  0.85757020  0.15132422  0.87092755     0.12300
S123        S  0.76994027  0.06606522  0.86467659    -0.05900
C124        C  0.79805005  0.08705236  0.90490643    -0.09400
C125        C  0.84409766  0.13337574  0.90435753    -0.26000
S126        S  0.96918963  0.24933966  0.80596956    -0.03200
C127        C  0.94216633  0.22637435  0.76564556    -0.16600
C128        C  0.89192144  0.18579129  0.76683040    -0.14600
H129        H  0.80072595  0.10468124  0.79226102     0.20700
H130        H  0.93334177  0.21778207  0.87910881     0.16800
H131        H  0.86798644  0.15127425  0.92696835     0.19300
H132        H  0.86953671  0.16524367  0.74421648     0.12600
C133        C  0.12988869  0.83097316  0.87064525     0.16500
C134        C  0.09051457  0.79494059  0.84923610    -0.32500
C135        C  0.09597735  0.80316105  0.81307156     0.20900
C136        C  0.13948637  0.84457354  0.79879185     0.03100
C137        C  0.17878611  0.88075411  0.82021617    -0.22300
C138        C  0.17256989  0.87338746  0.85645366     0.12300
S139        S  0.12880088  0.82948885  0.91515059    -0.05900
C140        C  0.18551008  0.88757157  0.91479271    -0.09400
C141        C  0.20450895  0.90627565  0.88169600    -0.26000
S142        S  0.13839363  0.84825330  0.75438406    -0.03200
C143        C  0.07794267  0.79439408  0.75508370    -0.16600
C144        C  0.06032507  0.77440398  0.78813152    -0.14600
H145        H  0.05642207  0.76269764  0.86034974     0.20700
H146        H  0.21203527  0.91396842  0.80915552     0.16800
H147        H  0.23890012  0.94270067  0.87640413     0.19300
H148        H  0.02297447  0.74136155  0.79367684     0.12600
C149        C  0.04138864  0.48901605  0.66215196     0.16500
C150        C  0.06044445  0.54222051  0.66004608    -0.32500
C151        C  0.02465025  0.55937639  0.65980305     0.20900
C152        C  0.97220984  0.52509935  0.66199020     0.03100
C153        C  0.95310891  0.47184577  0.66331301    -0.22300
C154        C  0.98888712  0.45467173  0.66314919     0.12300
S155        S  0.07850142  0.46059699  0.66423443    -0.05900
C156        C  0.02272964  0.40172064  0.66552475    -0.09400
C157        C  0.97793384  0.40446534  0.66461962    -0.26000
S158        S  0.93530381  0.55373942  0.66373216    -0.03200
C159        C  0.99099778  0.61252253  0.66073665    -0.16600
C160        C  0.03562890  0.60961328  0.65853583    -0.14600
H161        H  0.10142047  0.56911366  0.65906179     0.20700
H162        H  0.91215859  0.44498984  0.66482802     0.16800
H163        H  0.93942500  0.37150482  0.66571668     0.19300
H164        H  0.07412164  0.64256040  0.65718232     0.12600
C165        C  0.97164382  0.95428518  0.68051135     0.16500
C166        C  0.95270519  0.98852763  0.68106142    -0.32500
C167        C  0.98853415  0.04122085  0.68331462     0.20900
C168        C  0.04081332  0.05906117  0.68638379     0.03100
C169        C  0.05979389  0.02476748  0.68589618    -0.22300
C170        C  0.02407268  0.97215640  0.68213570     0.12300
S171        S  0.93451577  0.88911886  0.67626015    -0.05900
C172        C  0.99026308  0.88605089  0.67512196    -0.09400
C173        C  0.03504219  0.93310728  0.67870056    -0.26000
S174        S  0.07790807  0.12457945  0.68837034    -0.03200
C175        C  0.02257183  0.12790224  0.68342084    -0.16600
C176        C  0.97788078  0.08054737  0.68141630    -0.14600
H177        H  0.91190176  0.97478600  0.67877768     0.20700
H178        H  0.10069720  0.03861003  0.68729120     0.16800
H179        H  0.07347280  0.93836625  0.67886735     0.19300
H180        H  0.93968107  0.07522088  0.67812458     0.12600
C181        C  0.16018802  0.29144859  0.53631907     0.16500
C182        C  0.19712428  0.29047094  0.51430615    -0.32500
C183        C  0.18989403  0.29065096  0.47815863     0.20900
C184        C  0.14839588  0.29303164  0.46449464     0.03100
C185        C  0.11116933  0.29354843  0.48652062    -0.22300
C186        C  0.11773070  0.29205195  0.52269540     0.12300
S187        S  0.16137019  0.28996118  0.58084818    -0.05900
C188        C  0.10332356  0.28869497  0.58124011    -0.09400
C189        C  0.08461564  0.28988992  0.54837108    -0.26000
S190        S  0.14635790  0.29243522  0.41991824    -0.03200
C191        C  0.20100494  0.28711539  0.41966330    -0.16600
C192        C  0.22001723  0.28691185  0.45258057    -0.14600
H193        H  0.22961284  0.28868068  0.52491004     0.20700
H194        H  0.07803695  0.29410533  0.47591067     0.16800
H195        H  0.04852065  0.28875543  0.54353654     0.19300
H196        H  0.25343162  0.28303182  0.45755228     0.12600
C197        C  0.28777429  0.17751741  0.17877943     0.16500
C198        C  0.28779254  0.16847585  0.14283203    -0.32500
C199        C  0.28064562  0.12048325  0.13227454     0.20900
C200        C  0.27374643  0.08312344  0.15639480     0.03100
C201        C  0.27497290  0.09262413  0.19232684    -0.22300
C202        C  0.28221858  0.14061827  0.20287656     0.12300
S203        S  0.29089424  0.23115611  0.19692283    -0.05900
C204        C  0.28544951  0.20388803  0.23743323    -0.09400
C205        C  0.28173843  0.15590291  0.23654521    -0.26000
S206        S  0.26184974  0.02611372  0.13827494    -0.03200
C207        C  0.26697381  0.05304026  0.09767373    -0.16600
C208        C  0.27734965  0.10363361  0.09855515    -0.14600
H209        H  0.29177459  0.19702210  0.12391553     0.20700
H210        H  0.26921172  0.06340974  0.21122769     0.16800
H211        H  0.27595911  0.13214839  0.25926640     0.19300
H212        H  0.28060459  0.12633046  0.07572980     0.12600
C213        C  0.84205025  0.70927766  0.53352625     0.16500
C214        C  0.80409636  0.70999341  0.51264885    -0.32500
C215        C  0.81095892  0.71199278  0.47635005     0.20900
C216        C  0.85264053  0.71107492  0.46141750     0.03100
C217        C  0.89054063  0.71017013  0.48230004    -0.22300
C218        C  0.88477901  0.71038583  0.51866085     0.12300
S219        S  0.84286169  0.71128991  0.57805148    -0.05900
C220        C  0.90245513  0.71596279  0.57672399    -0.09400
C221        C  0.91977399  0.71450825  0.54334662    -0.26000
S222        S  0.85476707  0.71528136  0.41694106    -0.03200
C223        C  0.80011456  0.72048592  0.41855442    -0.16600
C224        C  0.78082393  0.71769729  0.45188890    -0.14600
H225        H  0.77166842  0.71100163  0.52424144     0.20700
H226        H  0.92404938  0.71130867  0.47072514     0.16800
H227        H  0.95663256  0.71785487  0.53743071     0.19300
H228        H  0.74740642  0.72113320  0.45796641     0.12600
C229        C  0.94732246  0.98569224  0.32476722     0.16500
C230        C  0.97855014  0.03932050  0.32497668    -0.32500
C231        C  0.03186371  0.05960122  0.32312427     0.20900
C232        C  0.05313163  0.02787102  0.32133529     0.03100
C233        C  0.02184031  0.97428448  0.32007658    -0.22300
C234        C  0.96850946  0.95400417  0.32178055     0.12300
S235        S  0.88208057  0.95365036  0.32908726    -0.05900
C236        C  0.88327916  0.89700460  0.32618590    -0.09400
C237        C  0.93176387  0.90289869  0.32199382    -0.26000
S238        S  0.11865474  0.05970763  0.32207329    -0.03200
C239        C  0.11732184  0.11631580  0.32414825    -0.16600
C240        C  0.06865093  0.11064242  0.32411524    -0.14600
H241        H  0.96206855  0.06410266  0.32722277     0.20700
H242        H  0.03836682  0.94947338  0.31858924     0.16800
H243        H  0.93973933  0.87153981  0.32018805     0.19300
H244        H  0.06068991  0.14201725  0.32585981     0.12600
C245        C  0.47912821  0.45393391  0.33037002     0.16500
C246        C  0.53271753  0.48547921  0.32933659    -0.32500
C247        C  0.55273868  0.53880649  0.33018233     0.20900
C248        C  0.52084837  0.55981266  0.33265881     0.03100
C249        C  0.46718338  0.52827180  0.33312945    -0.22300
C250        C  0.44712747  0.47491479  0.33158622     0.12300
S251        S  0.44753647  0.38837712  0.33006214    -0.05900
C252        C  0.39055613  0.38914076  0.33050111    -0.09400
C253        C  0.39606564  0.43781800  0.33122314    -0.26000
S254        S  0.55276151  0.62533444  0.33489198    -0.03200
C255        C  0.60956982  0.62441414  0.33156704    -0.16600
C256        C  0.60376405  0.57577066  0.32906804    -0.14600
H257        H  0.55771495  0.46915378  0.32792493     0.20700
H258        H  0.44219113  0.54459810  0.33460959     0.16800
H259        H  0.36447776  0.44555418  0.33188572     0.19300
H260        H  0.63518430  0.56789513  0.32710069     0.12600
C261        C  0.70404191  0.86173537  0.19798182     0.16500
C262        C  0.70434192  0.89975267  0.17661604    -0.32500
C263        C  0.70591888  0.89388846  0.14043961     0.20900
C264        C  0.70561655  0.85129708  0.12610449     0.03100
C265        C  0.70539491  0.81331748  0.14746946    -0.22300
C266        C  0.70535807  0.81995955  0.18366339     0.12300
S267        S  0.70578878  0.86365944  0.24245825    -0.05900
C268        C  0.71006444  0.80853600  0.24173520    -0.09400
C269        C  0.70905368  0.78937214  0.20867400    -0.26000
S270        S  0.70891931  0.85192998  0.08166148    -0.03200
C271        C  0.71239731  0.91096083  0.08247360    -0.16600
C272        C  0.71014102  0.92847957  0.11549603    -0.14600
H273        H  0.70491207  0.93321433  0.18771969     0.20700
H274        H  0.70676121  0.78083137  0.13637697     0.16800
H275        H  0.71256751  0.75585108  0.20320093     0.19300
H276        H  0.71281997  0.96514137  0.12098479     0.12600
loop_ 
_geom_bond_atom_site_label_1 
_geom_bond_atom_site_label_2 
_geom_bond_distance 
_geom_bond_site_symmetry_2 
_ccdc_geom_bond_type 
O1           Cu9   1.995       .  S
O1           C11   1.275       .  A
O2           Cu9   1.998       .  S
O2           C12   1.275       .  A
O3           Cu9   2.025       .  S
O3           C13   1.280       .  A
O4           Cu9   2.007       .  S
O4           C14   1.277       .  A
O5          Cu10   2.010       .  S
O5           C14   1.278       .  A
O6          Cu10   2.004       .  S
O6           C13   1.276       .  A
O7          Cu10   2.020       .  S
O7           C12   1.279       .  A
O8          Cu10   2.017       .  S
O8           C11   1.279       .  A
Cu9         Cu10   2.375       .  S
C11         C236   1.466       .  S
C12         C255   1.468       .  S
C13         C223   1.474       .  S
C14         C268   1.469       .  S
O15         Cu23   2.013       .  S
O15          C25   1.278       .  A
O16         Cu23   2.026       .  S
O16          C26   1.279       .  A
O17         Cu23   2.014       .  S
O17          C27   1.278       .  A
O18         Cu23   2.020       .  S
O18          C28   1.279       .  A
O19         Cu24   2.002       .  S
O19          C28   1.276       .  A
O20         Cu24   1.994       .  S
O20          C27   1.275       .  A
O21         Cu24   2.010       .  S
O21          C26   1.278       .  A
O22         Cu24   2.025       .  S
O22          C25   1.280       .  A
Cu23        Cu24   2.374       .  S
C25         C191   1.477       .  S
C26         C204   1.476       .  S
C27         C239   1.463       .  S
C28         C252   1.469       .  S
O29         Cu37   2.013       .  S
O29          C39   1.278       .  A
O30         Cu37   2.025       .  S
O30          C40   1.280   1_655  A
O31         Cu37   2.009       .  S
O31          C41   1.277       .  A
O32         Cu37   2.012       .  S
O32          C42   1.277       .  A
O33         Cu38   2.022       .  S
O33          C42   1.279   1_455  A
O34         Cu38   2.020       .  S
O34          C41   1.279   1_455  A
O35         Cu38   2.004       .  S
O35          C40   1.277       .  A
O36         Cu38   2.024   1_655  S
O36          C39   1.279       .  A
Cu37        Cu38   2.373   1_655  S
C39         C220   1.476       .  S
C40         C143   1.474       .  S
C41         C172   1.471       .  S
C42         C159   1.475       .  S
O43         Cu51   2.017       .  S
O43          C53   1.278   1_655  A
O44         Cu51   2.015       .  S
O44          C54   1.279   1_655  A
O45         Cu51   1.998       .  S
O45          C55   1.276       .  A
O46         Cu51   2.020   1_455  S
O46          C56   1.279       .  A
O47         Cu52   2.016       .  S
O47          C56   1.278       .  A
O48         Cu52   2.025       .  S
O48          C55   1.279   1_455  A
O49         Cu52   2.013       .  S
O49          C54   1.277       .  A
O50         Cu52   2.020       .  S
O50          C53   1.279       .  A
Cu51        Cu52   2.373   1_655  S
C53         C156   1.475       .  S
C54         C175   1.472       .  S
C55         C127   1.473       .  S
C56         C188   1.476       .  S
O57         Cu65   2.010       .  S
O57          C67   1.277   1_544  A
O58         Cu65   2.005       .  S
O58          C68   1.277   1_544  A
O59         Cu65   2.000   1_556  S
O59          C69   1.276       .  A
O60         Cu65   2.011   1_565  S
O60          C70   1.278       .  A
O61         Cu66   2.002   1_554  S
O61          C70   1.276       .  A
O62         Cu66   2.018   1_545  S
O62          C69   1.279       .  A
O63         Cu66   2.015       .  S
O63          C68   1.278       .  A
O64         Cu66   2.016       .  S
O64          C67   1.278       .  A
Cu65        Cu66   2.374   1_544  S
C67         C108   1.470   1_565  S
C68          C95   1.470       .  S
C69         C124   1.469       .  S
C70         C271   1.467       .  S
O71         Cu79   2.016       .  S
O71          C81   1.278       .  A
O72         Cu79   2.010       .  S
O72          C82   1.277       .  A
O73         Cu79   2.007   1_556  S
O73          C83   1.277       .  A
O74         Cu79   2.027       .  S
O74          C84   1.280   1_565  A
O75         Cu80   2.013   1_554  S
O75          C84   1.278       .  A
O76         Cu80   2.023   1_565  S
O76          C83   1.279       .  A
O77         Cu80   2.006       .  S
O77          C82   1.277   1_546  A
O78         Cu80   2.013       .  S
O78          C81   1.278   1_546  A
Cu79        Cu80   2.374   1_564  S
C81         C111   1.473       .  S
C82          C92   1.465       .  S
C83         C140   1.474       .  S
C84         C207   1.479       .  S
C85          S91   1.711       .  A
C85          C90   1.387   1_556  A
C85          C86   1.404   1_455  A
C86          C87   1.405       .  A
C86          H97   1.082       .  S
C87          C96   1.373       .  A
C87          C88   1.387   1_566  A
C88          S94   1.704       .  A
C88          C89   1.398   1_655  A
C89          C90   1.399   1_545  A
C89          H98   1.082       .  S
C90          C93   1.367   1_565  A
S91          C92   1.723   1_556  A
C92          C93   1.382   1_565  A
C93          H99   1.082       .  S
S94          C95   1.720   1_544  A
C95          C96   1.388       .  A
C96         H100   1.082       .  S
C101        S107   1.709       .  A
C101        C106   1.387   1_545  A
C101        C102   1.403       .  A
C102        C103   1.404   1_556  A
C102        H113   1.083       .  S
C103        C112   1.372       .  A
C103        C104   1.387   1_545  A
C104        S110   1.708       .  A
C104        C105   1.402       .  A
C105        C106   1.403   1_554  A
C105        H114   1.083       .  S
C106        C109   1.372       .  A
S107        C108   1.722       .  A
C108        C109   1.386   1_545  A
C109        H115   1.083       .  S
S110        C111   1.723       .  A
C111        C112   1.387   1_565  A
C112        H116   1.083   1_554  S
C117        S123   1.709       .  A
C117        C122   1.387       .  A
C117        C118   1.400       .  A
C118        C119   1.402       .  A
C118        H129   1.082       .  S
C119        C128   1.368       .  A
C119        C120   1.386       .  A
C120        S126   1.711       .  A
C120        C121   1.402       .  A
C121        C122   1.404       .  A
C121        H130   1.082       .  S
C122        C125   1.369       .  A
S123        C124   1.721       .  A
C124        C125   1.387       .  A
C125        H131   1.083       .  S
S126        C127   1.723       .  A
C127        C128   1.387       .  A
C128        H132   1.083       .  S
C133        S139   1.706       .  A
C133        C138   1.387       .  A
C133        C134   1.403       .  A
C134        C135   1.403       .  A
C134        H145   1.083       .  S
C135        C144   1.374       .  A
C135        C136   1.387       .  A
C136        S142   1.707       .  A
C136        C137   1.404       .  A
C137        C138   1.404       .  A
C137        H146   1.083       .  S
C138        C141   1.374       .  A
S139        C140   1.724       .  A
C140        C141   1.388       .  A
C141        H147   1.083       .  S
S142        C143   1.725       .  A
C143        C144   1.387       .  A
C144        H148   1.083       .  S
C149        S155   1.710       .  A
C149        C154   1.387   1_455  A
C149        C150   1.404       .  A
C150        C151   1.404       .  A
C150        H161   1.083       .  S
C151        C160   1.374       .  A
C151        C152   1.387   1_455  A
C152        S158   1.709       .  A
C152        C153   1.404       .  A
C153        C154   1.404       .  A
C153        H162   1.083       .  S
C154        C157   1.374       .  A
S155        C156   1.723       .  A
C156        C157   1.388   1_455  A
C157        H163   1.083       .  S
S158        C159   1.724       .  A
C159        C160   1.387   1_655  A
C160        H164   1.083       .  S
C165        S171   1.708       .  A
C165        C170   1.387   1_655  A
C165        C166   1.401       .  A
C166        C167   1.402   1_565  A
C166        H177   1.083       .  S
C167        C176   1.370       .  A
C167        C168   1.387   1_655  A
C168        S174   1.710       .  A
C168        C169   1.404       .  A
C169        C170   1.404   1_545  A
C169        H178   1.083       .  S
C170        C173   1.373       .  A
S171        C172   1.721       .  A
C172        C173   1.387   1_655  A
C173        H179   1.083       .  S
S174        C175   1.724       .  A
C175        C176   1.386   1_455  A
C176        H180   1.083       .  S
C181        S187   1.708       .  A
C181        C186   1.387       .  A
C181        C182   1.403       .  A
C182        C183   1.403       .  A
C182        H193   1.083       .  S
C183        C192   1.374       .  A
C183        C184   1.387       .  A
C184        S190   1.710       .  A
C184        C185   1.405       .  A
C185        C186   1.405       .  A
C185        H194   1.083       .  S
C186        C189   1.375       .  A
S187        C188   1.723       .  A
C188        C189   1.388       .  A
C189        H195   1.083       .  S
S190        C191   1.725       .  A
C191        C192   1.387       .  A
C192        H196   1.083       .  S
C197        S203   1.713       .  A
C197        C202   1.386       .  A
C197        C198   1.404       .  A
C198        C199   1.406       .  A
C198        H209   1.082       .  S
C199        C208   1.374       .  A
C199        C200   1.386       .  A
C200        S206   1.711       .  A
C200        C201   1.403       .  A
C201        C202   1.405       .  A
C201        H210   1.082       .  S
C202        C205   1.372       .  A
S203        C204   1.724       .  A
C204        C205   1.388       .  A
C205        H211   1.083       .  S
S206        C207   1.724       .  A
C207        C208   1.390       .  A
C208        H212   1.083       .  S
C213        S219   1.708       .  A
C213        C218   1.387       .  A
C213        C214   1.403       .  A
C214        C215   1.403       .  A
C214        H225   1.083       .  S
C215        C224   1.373       .  A
C215        C216   1.387       .  A
C216        S222   1.708       .  A
C216        C217   1.404       .  A
C217        C218   1.404       .  A
C217        H226   1.083       .  S
C218        C221   1.375       .  A
S219        C220   1.723       .  A
C220        C221   1.388       .  A
C221        H227   1.083       .  S
S222        C223   1.724       .  A
C223        C224   1.386       .  A
C224        H228   1.083       .  S
C229        S235   1.704       .  A
C229        C234   1.388       .  A
C229        C230   1.401   1_565  A
C230        C231   1.401   1_655  A
C230        H241   1.083       .  S
C231        C240   1.370       .  A
C231        C232   1.388       .  A
C232        S238   1.704       .  A
C232        C233   1.401   1_545  A
C233        C234   1.401   1_455  A
C233        H242   1.083       .  S
C234        C237   1.371       .  A
S235        C236   1.722       .  A
C236        C237   1.384       .  A
C237        H243   1.083       .  S
S238        C239   1.721       .  A
C239        C240   1.383       .  A
C240        H244   1.083       .  S
C245        S251   1.705       .  A
C245        C250   1.387       .  A
C245        C246   1.401       .  A
C246        C247   1.401       .  A
C246        H257   1.083       .  S
C247        C256   1.371       .  A
C247        C248   1.387       .  A
C248        S254   1.706       .  A
C248        C249   1.402       .  A
C249        C250   1.403       .  A
C249        H258   1.083       .  S
C250        C253   1.372       .  A
S251        C252   1.722       .  A
C252        C253   1.386       .  A
C253        H259   1.083       .  S
S254        C255   1.723       .  A
C255        C256   1.384       .  A
C256        H260   1.083       .  S
C261        S267   1.706       .  A
C261        C266   1.387       .  A
C261        C262   1.401       .  A
C262        C263   1.401       .  A
C262        H273   1.083       .  S
C263        C272   1.370       .  A
C263        C264   1.387       .  A
C264        S270   1.706       .  A
C264        C265   1.401       .  A
C265        C266   1.402       .  A
C265        H274   1.083       .  S
C266        C269   1.370       .  A
S267        C268   1.722       .  A
C268        C269   1.386       .  A
C269        H275   1.083       .  S
S270        C271   1.722       .  A
C271        C272   1.385       .  A
C272        H276   1.083       .  S
