geometry optimzed in LAMMPS
_audit_creation_date              2020-12-01 
_audit_creation_method            'lammps2cif' 
_symmetry_space_group_name_H-M    'P1' 
_symmetry_Int_Tables_number       1 
_symmetry_cell_setting            triclinic 
loop_ 
_symmetry_equiv_pos_as_xyz 
  x,y,z 
_cell_length_a                    39.94201403 
_cell_length_b                    40.21831886352864 
_cell_length_c                    16.17466877048459 
_cell_angle_alpha                 90.24698713822744 
_cell_angle_beta                  88.77460485363525 
_cell_angle_gamma                 126.26411541375641 
loop_ 
_atom_site_label 
_atom_site_type_symbol 
_atom_site_fract_x 
_atom_site_fract_y 
_atom_site_fract_z 
_atom_site_charge 
N1          N  0.58120814  0.40726432  0.27502175    -0.27100
N2          N  0.55047322  0.39949840  0.22912025    -0.34900
C3          C  0.56431379  0.43234835  0.18000937     0.01300
C4          C  0.60597299  0.46231386  0.19557497     0.07300
C5          C  0.61533644  0.44530398  0.25692815    -0.05800
H6          H  0.54699635  0.43231521  0.12946795     0.08000
H7          H  0.64615858  0.45682191  0.27654175     0.09200
Cu8        Cu  0.49594892  0.34053408  0.21971113     0.44200
Cu9        Cu  0.58039950  0.36060078  0.33001697     0.42000
Cu10       Cu  0.49956051  0.25421056  0.27370851     0.43900
N11         N  0.44506937  0.27904856  0.22113363    -0.34500
N12         N  0.44560879  0.24741759  0.24026285    -0.28700
C13         C  0.40636854  0.21256480  0.23921532    -0.04800
C14         C  0.37998271  0.22295571  0.21905829     0.07400
C15         C  0.40584227  0.26531685  0.20778201     0.01200
H16         H  0.39767562  0.18234000  0.25568220     0.08800
H17         H  0.39671512  0.28502400  0.19242009     0.07900
N18         N  0.55887706  0.27503576  0.30984567    -0.35900
N19         N  0.58706971  0.31345756  0.33305045    -0.28100
C20         C  0.62329971  0.31909712  0.34365865    -0.03300
C21         C  0.61802078  0.28265857  0.32658535     0.05300
C22         C  0.57671083  0.25512830  0.30574525     0.03400
H23         H  0.65217777  0.34846708  0.35725110     0.08500
H24         H  0.56161304  0.22401847  0.28370022     0.07300
C25         C  0.20668061  0.13874983  0.14946239     0.80400
N26         N  0.18157486  0.14760297  0.18424991    -0.77900
C27         C  0.14890673  0.14090977  0.14254895     0.82900
N28         N  0.14055194  0.12399959  0.06522377    -0.77800
C29         C  0.16376293  0.11213437  0.03272656     0.83000
N30         N  0.19660942  0.11991094  0.07529610    -0.79500
N31         N  0.25987404  0.79699345  0.91133932    -0.27100
N32         N  0.23224428  0.80032158  0.94855405    -0.34900
C33         C  0.20472539  0.76494647  0.99093564     0.01300
C34         C  0.21569749  0.73830394  0.97803312     0.07300
C35         C  0.25074364  0.75985017  0.92752009    -0.05800
H36         H  0.17857016  0.75892438  0.02727352     0.08000
H37         H  0.26904820  0.74964537  0.90570053     0.09200
Cu38       Cu  0.23477969  0.85331576  0.93271753     0.44200
Cu39       Cu  0.31072909  0.84301922  0.84422692     0.42000
Cu40       Cu  0.32341274  0.93490234  0.79603741     0.43900
N41         N  0.24341738  0.90701103  0.89006194    -0.34500
N42         N  0.27361079  0.93463725  0.83864642    -0.28700
C43         C  0.26799514  0.96367863  0.82106569    -0.04800
C44         C  0.23316791  0.95442050  0.86413363     0.07400
C45         C  0.21840005  0.91838816  0.90726099     0.01200
H46         H  0.28843853  0.99023311  0.78136187     0.08800
H47         H  0.19103669  0.90130494  0.94752976     0.07900
N48         N  0.36982601  0.92729327  0.77053300    -0.35900
N49         N  0.36424231  0.89246433  0.78968621    -0.28100
C50         C  0.39869858  0.89545002  0.77020600    -0.03300
C51         C  0.42799395  0.93433017  0.73748388     0.05300
C52         C  0.40840949  0.95363628  0.73749846     0.03400
H53         H  0.40181512  0.87070981  0.77832038     0.08500
H54         H  0.42139217  0.98458281  0.71611502     0.07300
C55         C  0.17020030  0.05254788  0.86824686     0.80400
N56         N  0.17696313  0.07507016  0.93633560    -0.77900
C57         C  0.15530578  0.09060151  0.95274733     0.82900
N58         N  0.12563028  0.08324303  0.89898775    -0.77800
C59         C  0.11978757  0.06212856  0.82737437     0.83000
N60         N  0.14258592  0.04742915  0.81288243    -0.79500
N61         N  0.79500896  0.58991060  0.89304434    -0.27100
N62         N  0.80022422  0.62429078  0.91546257    -0.34900
C63         C  0.76779969  0.61474451  0.96399963     0.01300
C64         C  0.74057552  0.57223928  0.97098530     0.07300
C65         C  0.75889047  0.55752975  0.92549838    -0.05800
H66         H  0.76463175  0.63704044  0.99310191     0.08000
H67         H  0.74788770  0.52574665  0.92004519     0.09200
Cu68       Cu  0.85172862  0.68204840  0.87881828     0.44200
Cu69       Cu  0.83932308  0.58891534  0.82696693     0.42000
Cu70       Cu  0.93330081  0.68627158  0.75974381     0.43900
N71         N  0.90354075  0.73522367  0.82603644    -0.34500
N72         N  0.93308877  0.73697266  0.78304151    -0.28700
C73         C  0.96091090  0.77580556  0.75505457    -0.04800
C74         C  0.94829202  0.79968922  0.78180349     0.07400
C75         C  0.91173432  0.77277495  0.82639268     0.01200
H76         H  0.98752846  0.78541211  0.71589272     0.08800
H77         H  0.89227404  0.77986141  0.85667616     0.07900
N78         N  0.92290581  0.62977629  0.74093755    -0.35900
N79         N  0.88850004  0.59440588  0.76613950    -0.28100
C80         C  0.89057326  0.56344493  0.74412431    -0.03300
C81         C  0.92789715  0.57988601  0.70219653     0.05300
C82         C  0.94772440  0.62214397  0.70156856     0.03400
H83         H  0.86611068  0.53114954  0.75586874     0.08500
H84         H  0.97790474  0.64567754  0.67448929     0.07300
C85         C  0.02361557  0.97336692  0.74291461     0.80400
N86         N  0.05717793  0.99783074  0.78981752    -0.77900
C87         C  0.07953839  0.03940452  0.78592707     0.82900
N88         N  0.06849037  0.05727964  0.73167912    -0.77800
C89         C  0.03372217  0.03261954  0.68524235     0.83000
N90         N  0.01141435  0.99081139  0.69203513    -0.79500
N91         N  0.59124460  0.85209235  0.37301475    -0.27100
N92         N  0.61243416  0.83785819  0.39385034    -0.34900
C93         C  0.59324995  0.79942685  0.36398627     0.01300
C94         C  0.55790484  0.78879230  0.32320231     0.07300
C95         C  0.55812622  0.82327545  0.33009288    -0.05800
H96         H  0.60381066  0.78046007  0.37375289     0.08000
H97         H  0.53423524  0.82621201  0.31066555     0.09200
Cu98       Cu  0.66357381  0.87025112  0.46977626     0.44200
Cu99       Cu  0.60178987  0.90584819  0.41657683     0.42000
Cu100      Cu  0.67270483  0.95508361  0.57938894     0.43900
N101        N  0.71353145  0.91249960  0.54253882    -0.34500
N102        N  0.71692844  0.94344296  0.58097340    -0.28700
C103        C  0.75519012  0.96838542  0.61186333    -0.04800
C104        C  0.77701417  0.95243116  0.59249098     0.07400
C105        C  0.74951084  0.91688200  0.54870636     0.01200
H106        H  0.76717389  0.99749790  0.64134549     0.08800
H107        H  0.75639917  0.89775673  0.51699371     0.07900
N108        N  0.62632522  0.96260086  0.55948010    -0.35900
N109        N  0.60170319  0.94628533  0.49552715    -0.28100
C110        C  0.57117319  0.95094177  0.50473721    -0.03300
C111        C  0.57643716  0.97081448  0.57860085     0.05300
C112        C  0.61178620  0.97768774  0.61170561     0.03400
H113        H  0.54394696  0.93571932  0.46687091     0.08500
H114        H  0.62337905  0.98875816  0.67303743     0.07300
C115        C  0.95546527  0.03892166  0.58499538     0.80400
N116        N  0.97414168  0.02755979  0.63437762    -0.77900
C117        C  0.01623810  0.04918794  0.63416052     0.82900
N118        N  0.04010025  0.08236644  0.58160769    -0.77800
C119        C  0.02109830  0.09258949  0.52865741     0.83000
N120        N  0.97914847  0.07086926  0.53174599    -0.79500
C121        C  0.03696649  0.18371667  0.43825876     0.80400
N122        N  0.05925664  0.18940982  0.36867548    -0.77900
C123        C  0.07401313  0.16688054  0.35374939     0.82900
N124        N  0.06530828  0.13703915  0.40955285    -0.77800
C125        C  0.04372875  0.13177593  0.48144797     0.83000
N126        N  0.03045887  0.15571030  0.49508477    -0.79500
N127        N  0.93556208  0.42207093  0.44956574    -0.27100
N128        N  0.95281840  0.41553936  0.50998453    -0.34900
C129        C  0.96719604  0.44585435  0.56575528     0.01300
C130        C  0.95842846  0.47261328  0.53880745     0.07300
C131        C  0.93875416  0.45667019  0.46461643    -0.05800
H132        H  0.97982391  0.44640553  0.62470646     0.08000
H133        H  0.92293689  0.46635396  0.43009052     0.09200
Cu134      Cu  0.94806546  0.36125710  0.51901477     0.44200
Cu135      Cu  0.89415809  0.37666063  0.36980523     0.42000
Cu136      Cu  0.85666570  0.27339345  0.41746693     0.43900
N137        N  0.93797176  0.30471705  0.50017255    -0.34500
N138        N  0.90578353  0.27352745  0.46067873    -0.28700
C139        C  0.91189184  0.24430997  0.44835499    -0.04800
C140        C  0.94918839  0.25730950  0.48302791     0.07400
C141        C  0.96486458  0.29572881  0.51522487     0.01200
H142        H  0.89151601  0.21637789  0.41374301     0.08800
H143        H  0.99500756  0.31685742  0.54223386     0.07900
N144        N  0.81859076  0.28830992  0.37085772    -0.35900
N145        N  0.83425401  0.32649299  0.34816481    -0.28100
C146        C  0.80347959  0.32869368  0.32620206    -0.03300
C147        C  0.76606098  0.29011599  0.33559123     0.05300
C148        C  0.77687620  0.26503330  0.36389125     0.03400
H149        H  0.80782907  0.35718413  0.31085192     0.08500
H150        H  0.75609564  0.23266993  0.38042430     0.07300
N151        N  0.33607149  0.59968278  0.23149994    -0.27100
N152        N  0.34720365  0.57595608  0.20800348    -0.34900
C153        C  0.38903199  0.59824537  0.20961586     0.01300
C154        C  0.40450722  0.63802251  0.23345948     0.07300
C155        C  0.37003646  0.63756067  0.24733188    -0.05800
H156        H  0.40681671  0.58698863  0.19114726     0.05000
H157        H  0.36967475  0.66329767  0.26525979     0.09200
Cu158      Cu  0.30339229  0.51636952  0.16633317     0.44200
Cu159      Cu  0.27647716  0.58294185  0.22714554     0.42000
Cu160      Cu  0.20620971  0.49937361  0.09802138     0.43900
N161        N  0.25092738  0.46044170  0.12595809    -0.34500
N162        N  0.21676335  0.45466171  0.09939710    -0.28700
C163        C  0.18858103  0.41446040  0.08274443    -0.04800
C164        C  0.20532820  0.39345530  0.10096383     0.07400
C165        C  0.24509236  0.42395704  0.12754759     0.01200
H166        H  0.15792527  0.40182132  0.06092681     0.08800
H167        H  0.26759916  0.41978237  0.15058889     0.07900
N168        N  0.20171467  0.54728262  0.12297738    -0.35900
N169        N  0.22622166  0.57644341  0.17609621    -0.28100
C170        C  0.22034078  0.60595668  0.17302901    -0.03300
C171        C  0.19110411  0.59542032  0.11411860     0.05300
C172        C  0.17959757  0.55766827  0.08403337     0.03400
H173        H  0.23982158  0.63538155  0.20328524     0.08500
H174        H  0.15936939  0.54074060  0.03310542     0.07300
C175        C  0.13384040  0.22254638  0.16288963     0.80400
N176        N  0.14397310  0.19812960  0.13162050    -0.77900
C177        C  0.13133183  0.16253383  0.17133383     0.82900
N178        N  0.11000239  0.15236638  0.24556011    -0.77800
C179        C  0.09872961  0.17627910  0.27587405     0.83000
N180        N  0.11046486  0.21077510  0.23337362    -0.79500
C181        C  0.21062157  0.33490083  0.10038369    -0.12100
C182        C  0.18507764  0.34818281  0.10178823     0.04900
C183        C  0.14156458  0.31800121  0.10997616    -0.07300
C184        C  0.12534840  0.27647249  0.12241540    -0.08100
C185        C  0.15137846  0.26395650  0.12778724    -0.02600
C186        C  0.19439827  0.29352102  0.11377422     0.04200
N187        N  0.22269926  0.28308412  0.12023393     0.66700
H188        H  0.24391056  0.35700067  0.09161466     0.15600
H189        H  0.09217112  0.25405245  0.13242353     0.15300
N190        N  0.11342071  0.32889492  0.11242821     0.74400
O191        O  0.22706736  0.26580980  0.06001245    -0.39100
O192        O  0.25046157  0.30078527  0.17398291    -0.39000
O193        O  0.08909105  0.31892063  0.05338168    -0.39700
O194        O  0.10730663  0.34098804  0.17934993    -0.39800
C195        C  0.00773011  0.21191492  0.52867289    -0.12100
C196        C  0.01600194  0.20428624  0.44856988     0.04900
C197        C  0.00219446  0.21470572  0.38018793    -0.07300
C198        C  0.97966437  0.23094115  0.39301723    -0.08100
C199        C  0.97144499  0.23836630  0.47288968    -0.02600
C200        C  0.98612731  0.22924088  0.54117574     0.04200
N201        N  0.97801369  0.23602854  0.62365157     0.66700
H202        H  0.01794201  0.20421759  0.58209994     0.15600
H203        H  0.96913331  0.23851868  0.33992006     0.15300
N204        N  0.01019624  0.20854496  0.29717799     0.74400
O205        O  0.94218700  0.21173402  0.65586088    -0.39100
O206        O  0.00764946  0.26289709  0.66767575    -0.39000
O207        O  0.98223353  0.17705524  0.25853354    -0.39700
O208        O  0.04148977  0.23805654  0.25794375    -0.39800
C209        C  0.84872075  0.01663376  0.57830995    -0.12100
C210        C  0.82249122  0.97434399  0.59711224     0.04900
C211        C  0.84023807  0.95353053  0.61403834    -0.07300
C212        C  0.88356248  0.97515184  0.61080744    -0.08100
C213        C  0.90982622  0.01732686  0.59013704    -0.02600
C214        C  0.89185960  0.03812142  0.57408000     0.04200
N215        N  0.91689125  0.08117717  0.55420859     0.66700
H216        H  0.83562326  0.03307657  0.56431758     0.15600
H217        H  0.89673759  0.95869745  0.62378992     0.15300
N218        N  0.81476016  0.91077716  0.63656689     0.74400
O219        O  0.92209061  0.09266089  0.47961362    -0.39100
O220        O  0.92724140  0.10702760  0.61089289    -0.39000
O221        O  0.81471663  0.88509793  0.59136552    -0.39700
O222        O  0.79703603  0.89962471  0.70694401    -0.39800
C223        C  0.49832796  0.74888555  0.22968291    -0.12100
C224        C  0.52330471  0.74851512  0.28894052     0.04900
C225        C  0.51195473  0.70994000  0.31864112    -0.07300
C226        C  0.47456094  0.67335582  0.29387941    -0.08100
C227        C  0.44802092  0.67457038  0.24080544    -0.02600
C228        C  0.46104285  0.71258033  0.20577788     0.04200
N229        N  0.43621003  0.71482540  0.14688371     0.66700
H230        H  0.50715569  0.77781590  0.20303485     0.15600
H231        H  0.46472240  0.64421437  0.32134782     0.15300
N232        N  0.53580616  0.70733009  0.37923341     0.74400
O233        O  0.42172417  0.73479129  0.16350442    -0.39100
O234        O  0.43383025  0.70203173  0.07434460    -0.39000
O235        O  0.53044648  0.71134307  0.45476679    -0.39700
O236        O  0.55671815  0.69420978  0.35891232    -0.39800
C237        C  0.94274489  0.85737175  0.75738657    -0.12100
C238        C  0.96807350  0.84396112  0.76488478     0.04900
C239        C  0.01161999  0.87328700  0.75784872    -0.07300
C240        C  0.02875708  0.91504966  0.74740369    -0.08100
C241        C  0.00347010  0.92855047  0.74347876    -0.02600
C242        C  0.96003322  0.89921666  0.74632457     0.04200
N243        N  0.93313495  0.91158159  0.74283576     0.66700
H244        H  0.90923286  0.83530747  0.76111481     0.15600
H245        H  0.06229509  0.93731372  0.74477939     0.15300
N246        N  0.03908105  0.86177148  0.76635053     0.74400
O247        O  0.91499640  0.90740602  0.67652052    -0.39100
O248        O  0.92201089  0.91971339  0.80881835    -0.39000
O249        O  0.06288972  0.86746917  0.70668562    -0.39700
O250        O  0.04464628  0.85278106  0.83691738    -0.39800
C251        C  0.93116375  0.52017818  0.70442105    -0.12100
C252        C  0.94157821  0.55608095  0.66402431     0.04900
C253        C  0.96223644  0.56672902  0.58605869    -0.07300
C254        C  0.96993145  0.54027751  0.54855497    -0.08100
C255        C  0.95742814  0.50328932  0.58720406    -0.02600
C256        C  0.93876932  0.49378405  0.66685898     0.04200
N257        N  0.92374547  0.45561668  0.70707116     0.66700
H258        H  0.91551907  0.51166274  0.76454293     0.15600
H259        H  0.98385521  0.54761724  0.48683361     0.15300
N260        N  0.97239354  0.60224132  0.54102704     0.74400
O261        O  0.94268801  0.45529413  0.76813555    -0.39100
O262        O  0.88841339  0.42353673  0.68994354    -0.39000
O263        O  0.00969536  0.63010409  0.52050892    -0.39700
O264        O  0.94379965  0.60302212  0.51189117    -0.39800
C265        C  0.19537672  0.66772396  0.95880875    -0.12100
C266        C  0.19722867  0.69653296  0.01158543     0.04900
C267        C  0.18876941  0.68733927  0.09672170    -0.07300
C268        C  0.18307888  0.65186293  0.12835430    -0.08100
C269        C  0.18544612  0.62518758  0.07634082    -0.02600
C270        C  0.18976554  0.63237466  0.99013938     0.04200
N271        N  0.19397690  0.60728099  0.93452874     0.66700
H272        H  0.20162244  0.67434662  0.89301268     0.15600
H273        H  0.17964837  0.64663468  0.19474688     0.15300
N274        N  0.19048724  0.71580037  0.15284090     0.74400
O275        O  0.16512450  0.58374294  0.88561959    -0.39100
O276        O  0.22895967  0.61411996  0.92392227    -0.39000
O277        O  0.15717642  0.70888409  0.18095852    -0.39700
O278        O  0.22447744  0.74325065  0.18542622    -0.39800
C279        C  0.20815599  0.98995008  0.79045548    -0.12100
C280        C  0.21635770  0.97875418  0.86524115     0.04900
C281        C  0.20882135  0.99138097  0.94022505    -0.07300
C282        C  0.19428465  0.01559930  0.93931917    -0.08100
C283        C  0.18626187  0.02727644  0.86461429    -0.02600
C284        C  0.19268024  0.01350616  0.78949398     0.04200
N285        N  0.18444400  0.02378819  0.71183183     0.66700
H286        H  0.21360239  0.98010643  0.73224272     0.15600
H287        H  0.18906802  0.02516159  0.99813674     0.15300
N288        N  0.21742169  0.98127949  0.01773873     0.74400
O289        O  0.21112610  0.05840893  0.67849141    -0.39100
O290        O  0.15322290  0.99644617  0.67166260    -0.39000
O291        O  0.25402695  0.00285099  0.04390176    -0.39700
O292        O  0.18782485  0.95516244  0.06532578    -0.39800
C293        C  0.48482972  0.97316151  0.63094892    -0.12100
C294        C  0.46987124  0.94986561  0.70465603     0.04900
C295        C  0.49327615  0.93803319  0.74124928    -0.07300
C296        C  0.52920690  0.94719149  0.70096876    -0.08100
C297        C  0.54278930  0.96835798  0.62506590    -0.02600
C298        C  0.52093686  0.98230812  0.59089437     0.04200
N299        N  0.53499330  0.00558248  0.51541719     0.66700
H300        H  0.46745448  0.98273141  0.60230806     0.15600
H301        H  0.54591699  0.93649914  0.72807792     0.15300
N302        N  0.48106421  0.91674813  0.81926791     0.74400
O303        O  0.51705168  0.98836603  0.44885183    -0.39100
O304        O  0.56062213  0.04433958  0.51752163    -0.39000
O305        O  0.47853332  0.88410333  0.82710736    -0.39700
O306        O  0.47728220  0.93291499  0.88242018    -0.39800
C307        C  0.72139131  0.30524010  0.26736501    -0.12100
C308        C  0.72457682  0.28136499  0.32533637     0.04900
C309        C  0.68953840  0.25332935  0.37642934    -0.07300
C310        C  0.65345550  0.25172868  0.37198149    -0.08100
C311        C  0.65187884  0.27794012  0.31803520    -0.02600
C312        C  0.68572546  0.30389996  0.26362458     0.04200
N313        N  0.68456844  0.32977146  0.20522419     0.66700
H314        H  0.74734169  0.32614566  0.22583186     0.15600
H315        H  0.62763658  0.23190582  0.41465389     0.15300
N316        N  0.69120255  0.22905004  0.43801722     0.74400
O317        O  0.70557869  0.36811720  0.21704706    -0.39100
O318        O  0.66764654  0.31529994  0.13651519    -0.39000
O319        O  0.70498845  0.24409713  0.50840802    -0.39700
O320        O  0.67211241  0.19081139  0.42740973    -0.39800
C321        C  0.26842896  0.13769512  0.16244506    -0.12100
C322        C  0.24876923  0.15658070  0.18182751     0.04900
C323        C  0.27160597  0.19457575  0.22376623    -0.07300
C324        C  0.31343680  0.21380181  0.24053932    -0.08100
C325        C  0.33393910  0.19664932  0.21521340    -0.02600
C326        C  0.31057757  0.15722114  0.17910413     0.04200
N327        N  0.32965346  0.13786413  0.15375803     0.66700
H328        H  0.25142024  0.10828630  0.13108243     0.15600
H329        H  0.33073404  0.24389821  0.26917240     0.15300
N330        N  0.25481959  0.21703973  0.23906522     0.74400
O331        O  0.32877274  0.11286926  0.20230852    -0.39100
O332        O  0.33943506  0.13906241  0.07856518    -0.39000
O333        O  0.25455370  0.22896650  0.31119489    -0.39700
O334        O  0.24827448  0.23191067  0.17852908    -0.39800
C335        C  0.63373269  0.48568933  0.05252994    -0.12100
C336        C  0.63713655  0.49482294  0.13713105     0.04900
C337        C  0.67341699  0.53184051  0.16519534    -0.07300
C338        C  0.70607294  0.55802066  0.10910111    -0.08100
C339        C  0.70337877  0.54763256  0.02541923    -0.02600
C340        C  0.66651448  0.51154892  0.99686078     0.04200
N341        N  0.66220524  0.50045627  0.91163904     0.66700
H342        H  0.60632949  0.45716738  0.02988161     0.15600
H343        H  0.73436566  0.58573892  0.13169258     0.15300
N344        N  0.67784428  0.54270276  0.25063569     0.74400
O345        O  0.66047766  0.46926560  0.89028721    -0.39100
O346        O  0.65348307  0.51764061  0.86025914    -0.39000
O347        O  0.70735215  0.54787345  0.29066275    -0.39700
O348        O  0.65561604  0.55225201  0.28303775    -0.39800
loop_ 
_geom_bond_atom_site_label_1 
_geom_bond_atom_site_label_2 
_geom_bond_distance 
_geom_bond_site_symmetry_2 
_ccdc_geom_bond_type 
N1            N2   1.319       .  A
N1            C5   1.343       .  A
N1           Cu9   2.063       .  S
N2            C3   1.345       .  A
N2           Cu8   2.071       .  S
C3            C4   1.388       .  A
C3            H6   1.082       .  S
C4            C5   1.385       .  A
C4          C336   1.479       .  S
C5            H7   1.082       .  S
Cu8          N11   2.073       .  S
Cu9          N19   2.066       .  S
Cu10         N12   2.089       .  S
Cu10         N18   2.089       .  S
N11          N12   1.323       .  A
N11          C15   1.340       .  A
N12          C13   1.350       .  A
C13          C14   1.389       .  A
C13          H16   1.081       .  S
C14          C15   1.384       .  A
C14         C325   1.486       .  S
C15          H17   1.082       .  S
N18          N19   1.323       .  A
N18          C22   1.351       .  A
N19          C20   1.341       .  A
C20          C21   1.379       .  A
C20          H23   1.082       .  S
C21          C22   1.386       .  A
C21         C311   1.476       .  S
C22          H24   1.081       .  S
C25          N26   1.358       .  A
C25          N30   1.352       .  A
C25         C322   1.491       .  S
N26          C27   1.360       .  A
C27          N28   1.371       .  A
C27         C177   1.473       .  S
N28          C29   1.365       .  A
C29          N30   1.358       .  A
C29          C57   1.483   1_554  S
N31          N32   1.321       .  A
N31          C35   1.337       .  A
N31         Cu39   2.051       .  S
N32          C33   1.352       .  A
N32         Cu38   2.090       .  S
C33          C34   1.390       .  A
C33          H36   1.082   1_556  S
C34          C35   1.378       .  A
C34         C266   1.478   1_556  S
C35          H37   1.082       .  S
Cu38         N41   2.093       .  S
Cu39         N49   2.051       .  S
Cu40         N42   2.085       .  S
Cu40         N48   2.083       .  S
N41          N42   1.327       .  A
N41          C45   1.347       .  A
N42          C43   1.346       .  A
C43          C44   1.381       .  A
C43          H46   1.082       .  S
C44          C45   1.384       .  A
C44         C280   1.478       .  S
C45          H47   1.084       .  S
N48          N49   1.319       .  A
N48          C52   1.349       .  A
N49          C50   1.339       .  A
C50          C51   1.382       .  A
C50          H53   1.082       .  S
C51          C52   1.390       .  A
C51         C294   1.483       .  S
C52          H54   1.082       .  S
C55          N56   1.349       .  A
C55          N60   1.354       .  A
C55         C283   1.489       .  S
N56          C57   1.355       .  A
C57          N58   1.369       .  A
N58          C59   1.373       .  A
C59          N60   1.364       .  A
C59          C87   1.474       .  S
N61          N62   1.321       .  A
N61          C65   1.343       .  A
N61         Cu69   2.069       .  S
N62          C63   1.346       .  A
N62         Cu68   2.070       .  S
C63          C64   1.384       .  A
C63          H66   1.082       .  S
C64          C65   1.383       .  A
C64         C339   1.474   1_556  S
C65          H67   1.082       .  S
Cu68         N71   2.071       .  S
Cu69         N79   2.069       .  S
Cu70         N72   2.077       .  S
Cu70         N78   2.076       .  S
N71          N72   1.322       .  A
N71          C75   1.343       .  A
N72          C73   1.346       .  A
C73          C74   1.387       .  A
C73          H76   1.081       .  S
C74          C75   1.384       .  A
C74         C238   1.483       .  S
C75          H77   1.082       .  S
N78          N79   1.322       .  A
N78          C82   1.347       .  A
N79          C80   1.342       .  A
C80          C81   1.383       .  A
C80          H83   1.082       .  S
C81          C82   1.387       .  A
C81         C252   1.482       .  S
C82          H84   1.083       .  S
C85          N86   1.348       .  A
C85          N90   1.354       .  A
C85         C241   1.477       .  S
N86          C87   1.352   1_565  A
C87          N88   1.371       .  A
N88          C89   1.373       .  A
C89          N90   1.363   1_545  A
C89         C117   1.481       .  S
N91          N92   1.321       .  A
N91          C95   1.339       .  A
N91         Cu99   2.066       .  S
N92          C93   1.348       .  A
N92         Cu98   2.079       .  S
C93          C94   1.391       .  A
C93          H96   1.081       .  S
C94          C95   1.386       .  A
C94         C224   1.489       .  S
C95          H97   1.082       .  S
Cu98        N101   2.080       .  S
Cu99        N109   2.065       .  S
Cu100       N102   2.079       .  S
Cu100       N108   2.077       .  S
N101        N102   1.323       .  A
N101        C105   1.346       .  A
N102        C103   1.344       .  A
C103        C104   1.385       .  A
C103        H106   1.081       .  S
C104        C105   1.385       .  A
C104        C210   1.481       .  S
C105        H107   1.082       .  S
N108        N109   1.320       .  A
N108        C112   1.346       .  A
N109        C110   1.344       .  A
C110        C111   1.383       .  A
C110        H113   1.082       .  S
C111        C112   1.388       .  A
C111        C297   1.477       .  S
C112        H114   1.081       .  S
C115        N116   1.355       .  A
C115        N120   1.351       .  A
C115        C213   1.485       .  S
N116        C117   1.361   1_655  A
C117        N118   1.372       .  A
N118        C119   1.371       .  A
C119        N120   1.356   1_455  A
C119        C125   1.476       .  S
C121        N122   1.353       .  A
C121        N126   1.354       .  A
C121        C196   1.492       .  S
N122        C123   1.360       .  A
C123        N124   1.370       .  A
C123        C179   1.488       .  S
N124        C125   1.372       .  A
C125        N126   1.361       .  A
N127        N128   1.321       .  A
N127        C131   1.342       .  A
N127       Cu135   2.057       .  S
N128        C129   1.347       .  A
N128       Cu134   2.082       .  S
C129        C130   1.388       .  A
C129        H132   1.082       .  S
C130        C131   1.381       .  A
C130        C255   1.478       .  S
C131        H133   1.082       .  S
Cu134       N137   2.084       .  S
Cu135       N145   2.058       .  S
Cu136       N138   2.094       .  S
Cu136       N144   2.091       .  S
N137        N138   1.325       .  A
N137        C141   1.347       .  A
N138        C139   1.347       .  A
C139        C140   1.385       .  A
C139        H142   1.082       .  S
C140        C141   1.383       .  A
C140        C199   1.480       .  S
C141        H143   1.082       .  S
N144        N145   1.320       .  A
N144        C148   1.352       .  A
N145        C146   1.339       .  A
C146        C147   1.383       .  A
C146        H149   1.082       .  S
C147        C148   1.393       .  A
C147        C308   1.489       .  S
C148        H150   1.082       .  S
N151        N152   1.321       .  A
N151        C155   1.339       .  A
N151       Cu159   2.058       .  S
N152        C153   1.351       .  A
N152       Cu158   2.082       .  S
C153        C154   1.387       .  A
C153        H156   1.081       .  S
C154        C155   1.379       .  A
C154        C227   1.477       .  S
C155        H157   1.082       .  S
Cu158       N161   2.085       .  S
Cu159       N169   2.056       .  S
Cu160       N162   2.076       .  S
Cu160       N168   2.075       .  S
N161        N162   1.323       .  A
N161        C165   1.343       .  A
N162        C163   1.345       .  A
C163        C164   1.388       .  A
C163        H166   1.078       .  S
C164        C165   1.390       .  A
C164        C182   1.492       .  S
C165        H167   1.081       .  S
N168        N169   1.319       .  A
N168        C172   1.347       .  A
N169        C170   1.341       .  A
C170        C171   1.382       .  A
C170        H173   1.080       .  S
C171        C172   1.390       .  A
C171        C269   1.480       .  S
C172        H174   1.081       .  S
C175        N176   1.357       .  A
C175        N180   1.353       .  A
C175        C185   1.482       .  S
N176        C177   1.362       .  A
C177        N178   1.372       .  A
N178        C179   1.366       .  A
C179        N180   1.357       .  A
C181        C182   1.404       .  A
C181        C186   1.399       .  A
C181        H188   1.083       .  S
C182        C183   1.417       .  A
C183        C184   1.403       .  A
C183        N190   1.428       .  S
C184        C185   1.402       .  A
C184        H189   1.083       .  S
C185        C186   1.409       .  A
C186        N187   1.425       .  S
N187        O191   1.262       .  A
N187        O192   1.263       .  A
N190        O194   1.262       .  A
N190        O193   1.262       .  A
C195        C196   1.407       .  A
C195        C200   1.405   1_455  A
C195        H202   1.084       .  S
C196        C197   1.417       .  A
C197        C198   1.402   1_455  A
C197        N204   1.428       .  S
C198        C199   1.400       .  A
C198        H203   1.085       .  S
C199        C200   1.409       .  A
C200        N201   1.429       .  S
N201        O205   1.262       .  A
N201        O206   1.262   1_655  A
N204        O208   1.261       .  A
N204        O207   1.262   1_455  A
C209        C210   1.402   1_545  A
C209        C214   1.398       .  A
C209        H216   1.085       .  S
C210        C211   1.411       .  A
C211        C212   1.403       .  A
C211        N218   1.430       .  S
C212        C213   1.405   1_565  A
C212        H217   1.085       .  S
C213        C214   1.415       .  A
C214        N215   1.430       .  S
N215        O219   1.262       .  A
N215        O220   1.262       .  A
N218        O222   1.262       .  A
N218        O221   1.262       .  A
C223        C224   1.405       .  A
C223        C228   1.395       .  A
C223        H230   1.085       .  S
C224        C225   1.417       .  A
C225        C226   1.406       .  A
C225        N232   1.428       .  S
C226        C227   1.401       .  A
C226        H231   1.085       .  S
C227        C228   1.408       .  A
C228        N229   1.431       .  S
N229        O233   1.262       .  A
N229        O234   1.262       .  A
N232        O236   1.262       .  A
N232        O235   1.262       .  A
C237        C238   1.407       .  A
C237        C242   1.401       .  A
C237        H244   1.084       .  S
C238        C239   1.412   1_655  A
C239        C240   1.398       .  A
C239        N246   1.430       .  S
C240        C241   1.404       .  A
C240        H245   1.085       .  S
C241        C242   1.407   1_455  A
C242        N243   1.428       .  S
N243        O247   1.261       .  A
N243        O248   1.262       .  A
N246        O250   1.262       .  A
N246        O249   1.262       .  A
C251        C252   1.404       .  A
C251        C256   1.399       .  A
C251        H258   1.085       .  S
C252        C253   1.413       .  A
C253        C254   1.403       .  A
C253        N260   1.430       .  S
C254        C255   1.403       .  A
C254        H259   1.085       .  S
C255        C256   1.410       .  A
C256        N257   1.429       .  S
N257        O261   1.262       .  A
N257        O262   1.262       .  A
N260        O264   1.262       .  A
N260        O263   1.262   1_655  A
C265        C266   1.403   1_556  A
C265        C270   1.397       .  A
C265        H272   1.085       .  S
C266        C267   1.408       .  A
C267        C268   1.402       .  A
C267        N274   1.428       .  S
C268        C269   1.406       .  A
C268        H273   1.085       .  S
C269        C270   1.411   1_554  A
C270        N271   1.429       .  S
N271        O275   1.262       .  A
N271        O276   1.262       .  A
N274        O278   1.262       .  A
N274        O277   1.262       .  A
C279        C280   1.403       .  A
C279        C284   1.405   1_565  A
C279        H286   1.087       .  S
C280        C281   1.407       .  A
C281        C282   1.398   1_565  A
C281        N288   1.429   1_556  S
C282        C283   1.408       .  A
C282        H287   1.086       .  S
C283        C284   1.413       .  A
C284        N285   1.428       .  S
N285        O289   1.262       .  A
N285        O290   1.262   1_545  A
N288        O292   1.262       .  A
N288        O291   1.262   1_565  A
C293        C294   1.405       .  A
C293        C298   1.403       .  A
C293        H300   1.084       .  S
C294        C295   1.415       .  A
C295        C296   1.399       .  A
C295        N302   1.433       .  S
C296        C297   1.400       .  A
C296        H301   1.085       .  S
C297        C298   1.409       .  A
C298        N299   1.429   1_565  S
N299        O303   1.262   1_545  A
N299        O304   1.262       .  A
N302        O306   1.262       .  A
N302        O305   1.263       .  A
C307        C308   1.405       .  A
C307        C312   1.396       .  A
C307        H314   1.085       .  S
C308        C309   1.416       .  A
C309        C310   1.408       .  A
C309        N316   1.428       .  S
C310        C311   1.402       .  A
C310        H315   1.085       .  S
C311        C312   1.407       .  A
C312        N313   1.430       .  S
N313        O317   1.262       .  A
N313        O318   1.262       .  A
N316        O320   1.262       .  A
N316        O319   1.262       .  A
C321        C322   1.409       .  A
C321        C326   1.406       .  A
C321        H328   1.085       .  S
C322        C323   1.413       .  A
C323        C324   1.397       .  A
C323        N330   1.426       .  S
C324        C325   1.402       .  A
C324        H329   1.085       .  S
C325        C326   1.411       .  A
C326        N327   1.428       .  S
N327        O331   1.262       .  A
N327        O332   1.262       .  A
N330        O334   1.259       .  A
N330        O333   1.262       .  A
C335        C336   1.404       .  A
C335        C340   1.398   1_554  A
C335        H342   1.085       .  S
C336        C337   1.412       .  A
C337        C338   1.402       .  A
C337        N344   1.430       .  S
C338        C339   1.402       .  A
C338        H343   1.085       .  S
C339        C340   1.408   1_554  A
C340        N341   1.429       .  S
N341        O345   1.262       .  A
N341        O346   1.262       .  A
N344        O348   1.262       .  A
N344        O347   1.262       .  A
