geometry optimzed in LAMMPS
_audit_creation_date              2020-12-01 
_audit_creation_method            'lammps2cif' 
_symmetry_space_group_name_H-M    'P1' 
_symmetry_Int_Tables_number       1 
_symmetry_cell_setting            triclinic 
loop_ 
_symmetry_equiv_pos_as_xyz 
  x,y,z 
_cell_length_a                    32.07950542 
_cell_length_b                    32.07198522494615 
_cell_length_c                    41.042791105615116 
_cell_angle_alpha                 89.68102449366239 
_cell_angle_beta                  90.07185349120222 
_cell_angle_gamma                 120.0107043753525 
loop_ 
_atom_site_label 
_atom_site_type_symbol 
_atom_site_fract_x 
_atom_site_fract_y 
_atom_site_fract_z 
_atom_site_charge 
O1          O  0.67407911  0.70447136  0.34746138    -0.69900
O2          O  0.79281986  0.82262722  0.34539069    -0.70200
O3          O  0.71461962  0.78148278  0.30719274    -0.70000
O4          O  0.75285884  0.74629588  0.38570022    -0.70000
O5          O  0.78517463  0.71243440  0.35759609    -0.70000
O6          O  0.74663506  0.74741898  0.27898572    -0.70000
O7          O  0.82489909  0.78863785  0.31712007    -0.70000
O8          O  0.70631866  0.67050710  0.31935424    -0.70100
V9          V  0.73410587  0.76293416  0.34589352     1.35200
V10         V  0.76500870  0.73028528  0.31881487     1.35200
C11         C  0.67014108  0.66752874  0.33372388     0.79300
C12         C  0.82886507  0.82553914  0.33087643     0.79300
C13         C  0.72494137  0.77120058  0.27980050     0.79200
C14         C  0.77626229  0.72423679  0.38494619     0.79200
O15         O  0.32376548  0.28910687  0.34693067    -0.69900
O16         O  0.20575051  0.17039231  0.34508584    -0.70200
O17         O  0.28429400  0.21222345  0.30708608    -0.70000
O18         O  0.24453713  0.24668204  0.38493585    -0.70000
O19         O  0.21217697  0.28018256  0.35613834    -0.70000
O20         O  0.25201846  0.24580801  0.27828340    -0.70000
O21         O  0.17341014  0.20390372  0.31622346    -0.70000
O22         O  0.29145259  0.32267856  0.31812346    -0.70100
V23         V  0.26406932  0.23038087  0.34545974     1.35200
V24         V  0.23300985  0.26261528  0.31776100     1.35200
C25         C  0.32757788  0.32593744  0.33280655     0.79300
C26         C  0.16973455  0.16709192  0.33026553     0.79300
C27         C  0.27401625  0.22234420  0.27950348     0.79200
C28         C  0.22092448  0.26853303  0.38370776     0.79200
O29         O  0.03203639  0.70728351  0.65271510    -0.69900
O30         O  0.03371282  0.82653731  0.65351373    -0.70200
O31         O  0.06981979  0.78454785  0.69217342    -0.70000
O32         O  0.99601768  0.74980704  0.61407431    -0.70000
O33         O  0.92998550  0.71701509  0.64259875    -0.70000
O34         O  0.00385267  0.75166280  0.72076930    -0.70000
O35         O  0.96773650  0.79367745  0.68214922    -0.70000
O36         O  0.96600024  0.67443187  0.68127142    -0.70100
V37         V  0.03160690  0.76630380  0.65367883     1.35200
V38         V  0.96817989  0.73473838  0.68114795     1.35200
C39         C  0.99869915  0.67069831  0.66682621     0.79300
C40         C  0.00097366  0.83019441  0.66795119     0.79300
C41         C  0.04933775  0.77464933  0.71968922     0.79200
C42         C  0.95056499  0.72818073  0.61510229     0.79200
O43         O  0.96588191  0.29214729  0.65103320    -0.69900
O44         O  0.96613076  0.17385475  0.65215607    -0.70200
O45         O  0.93041012  0.21518016  0.69126619    -0.70000
O46         O  0.00163314  0.25022474  0.61188907    -0.70000
O47         O  0.06856222  0.28402910  0.63927511    -0.70000
O48         O  0.99729338  0.24898500  0.71870757    -0.70000
O49         O  0.03305602  0.20768196  0.67960200    -0.70000
O50         O  0.03280432  0.32597039  0.67846339    -0.70100
V51         V  0.96733049  0.23363792  0.65211233     1.35200
V52         V  0.03163608  0.26613565  0.67847193     1.35200
C53         C  0.99923460  0.32901184  0.66462889     0.79300
C54         C  0.99960996  0.17081507  0.66610184     0.79300
C55         C  0.95180009  0.22536694  0.71841618     0.79200
C56         C  0.04712143  0.27223609  0.61214620     0.79200
O57         O  0.67441098  0.96668405  0.98623604    -0.69900
O58         O  0.79228871  0.96566564  0.98507331    -0.70200
O59         O  0.71582726  0.92984130  0.02514069    -0.70000
O60         O  0.75137411  0.00254551  0.94616435    -0.70000
O61         O  0.78555483  0.06897523  0.97393995    -0.70000
O62         O  0.74990398  0.99626787  0.05292261    -0.70000
O63         O  0.82640142  0.03207740  0.01291448    -0.70000
O64         O  0.70853238  0.03314532  0.01401087    -0.70100
V65         V  0.73404300  0.96748840  0.98618756     1.35200
V66         V  0.76683668  0.03132785  0.01290294     1.35200
C67         C  0.67151535  0.99999912  0.00039652     0.79300
C68         C  0.82922889  0.99870288  0.99880329     0.79300
C69         C  0.72742911  0.95076957  0.05239155     0.79200
C70         C  0.77520902  0.04802845  0.94668138     0.79200
O71         O  0.32463623  0.02905751  0.98656292    -0.69900
O72         O  0.20674490  0.03005545  0.98517205    -0.70200
O73         O  0.28318868  0.06591146  0.02507759    -0.70000
O74         O  0.24776212  0.99319425  0.94666343    -0.70000
O75         O  0.21355811  0.92675550  0.97493874    -0.70000
O76         O  0.24915423  0.99947847  0.05336312    -0.70000
O77         O  0.17265159  0.96366153  0.01354264    -0.70000
O78         O  0.29050908  0.96257446  0.01482613    -0.70100
V79         V  0.26500428  0.02825169  0.98641449     1.35200
V80         V  0.23221916  0.96440878  0.01361658     1.35200
C81         C  0.32749995  0.99567481  0.00094620     0.79300
C82         C  0.16982626  0.99705543  0.99916180     0.79300
C83         C  0.27158506  0.04497867  0.05248701     0.79200
C84         C  0.22409438  0.94770633  0.94751768     0.79200
C85         C  0.04324244  0.99799094  0.99847699     0.18900
C86         C  0.01989853  0.99514316  0.02792679    -0.10300
C87         C  0.97633413  0.99518402  0.02783986    -0.11100
C88         C  0.95595690  0.99807360  0.99830562     0.20400
C89         C  0.97930869  0.00094751  0.96885258    -0.13100
C90         C  0.02287999  0.00090466  0.96893948    -0.11400
C91         C  0.91117229  0.99815356  0.99825510     0.01400
C92         C  0.87370474  0.99832715  0.99841173    -0.31400
C93         C  0.08797793  0.99780817  0.99857925     0.02800
C94         C  0.12538922  0.99751857  0.99877415    -0.33100
H95         H  0.03534130  0.99287260  0.05089825     0.13800
H96         H  0.95856507  0.99296323  0.05074975     0.13600
H97         H  0.96385633  0.00321028  0.94588377     0.13500
H98         H  0.04064790  0.00311439  0.94603158     0.12500
C99         C  0.54357097  0.99853176  0.00214940     0.18900
C100        C  0.54248601  0.04157666  0.00419498    -0.10300
C101        C  0.49840202  0.04061928  0.00425995    -0.11100
C102        C  0.45518914  0.99661565  0.00228309     0.20400
C103        C  0.45626175  0.95355083  0.00037331    -0.13100
C104        C  0.50035001  0.95450822  0.00030931    -0.11400
C105        C  0.40986319  0.99573877  0.00197829     0.01400
C106        C  0.37212675  0.99545488  0.00155104    -0.31400
C107        C  0.58895407  0.99952869  0.00168597     0.02800
C108        C  0.62679216  0.00002498  0.00111209    -0.33100
H109        H  0.57567061  0.07582477  0.00562974     0.13800
H110        H  0.49800808  0.07413930  0.00574536     0.13600
H111        H  0.42307998  0.91931579  0.99883403     0.13500
H112        H  0.50075143  0.92100059  0.99872051     0.12500
C113        C  0.82986417  0.12124828  0.86110599     0.18900
C114        C  0.82883901  0.09430839  0.83402640    -0.10300
C115        C  0.85209807  0.11750442  0.80505781    -0.11100
C116        C  0.87665396  0.16790071  0.80286034     0.20400
C117        C  0.87715207  0.19490967  0.82978397    -0.13100
C118        C  0.85384571  0.17166513  0.85881315    -0.11400
C119        C  0.90260249  0.19149036  0.77335762     0.01400
C120        C  0.92488905  0.20863742  0.74840485    -0.31400
C121        C  0.80817510  0.09704812  0.89149830     0.02800
C122        C  0.79183258  0.07531230  0.91677254    -0.33100
H123        H  0.81064715  0.05535548  0.83545594     0.13800
H124        H  0.85150278  0.09615369  0.78451930     0.12400
H125        H  0.89608575  0.23388872  0.82849207     0.13500
H126        H  0.85512370  0.19298160  0.87956393     0.12500
C127        C  0.17211886  0.87476224  0.86203531     0.18900
C128        C  0.18079983  0.90188564  0.83336918    -0.10300
C129        C  0.15804045  0.87937275  0.80425882    -0.11100
C130        C  0.12635736  0.82950526  0.80351493     0.20400
C131        C  0.11848397  0.80216068  0.83200921    -0.13100
C132        C  0.14127919  0.82470957  0.86116593    -0.11400
C133        C  0.10014360  0.80715275  0.77398342     0.01400
C134        C  0.07726156  0.79082294  0.74922776    -0.31400
C135        C  0.19269349  0.89877667  0.89251497     0.02800
C136        C  0.20813077  0.92042313  0.91777353    -0.33100
H137        H  0.20437522  0.94058429  0.83366882     0.13800
H138        H  0.16437875  0.90101160  0.78248453     0.13600
H139        H  0.09400081  0.76362502  0.83184987     0.13500
H140        H  0.13407720  0.80327914  0.88313760     0.12500
C141        C  0.99726868  0.54274425  0.66564439     0.18900
C142        C  0.00469712  0.52517948  0.63633280    -0.10300
C143        C  0.00495503  0.48168713  0.63597260    -0.11100
C144        C  0.99778642  0.45555420  0.66492088     0.20400
C145        C  0.99020087  0.47304301  0.69421433    -0.13100
C146        C  0.98994372  0.51653409  0.69457457    -0.11400
C147        C  0.99837360  0.41094566  0.66460191     0.01400
C148        C  0.99886472  0.37358484  0.66449400    -0.31400
C149        C  0.99749602  0.58775610  0.66607080     0.02800
C150        C  0.99797146  0.62559280  0.66643294    -0.33100
H151        H  0.01039968  0.54513649  0.61381964     0.13800
H152        H  0.01083686  0.46850841  0.61317874     0.13600
H153        H  0.98460165  0.45314019  0.71674056     0.13500
H154        H  0.98416667  0.52976541  0.71738079     0.12500
C155        C  0.00007233  0.04405045  0.66743327     0.18900
C156        C  0.03782391  0.04138114  0.68259198    -0.10300
C157        C  0.03823430  0.99799750  0.68286142    -0.11100
C158        C  0.00087923  0.95715537  0.66796621     0.20400
C159        C  0.96309571  0.95981263  0.65284706    -0.13100
C160        C  0.96268501  0.00319181  0.65257830    -0.11400
C161        C  0.00132826  0.91257192  0.66813426     0.01400
C162        C  0.00139325  0.87505535  0.66812440    -0.31400
C163        C  0.99978081  0.08870886  0.66702158     0.02800
C164        C  0.99965246  0.12618975  0.66660736    -0.33100
H165        H  0.06691767  0.07281106  0.69414813     0.13800
H166        H  0.06759596  0.99630074  0.69461299     0.13600
H167        H  0.93402721  0.92839929  0.64125777     0.13500
H168        H  0.93334892  0.00489958  0.64079520     0.12500
C169        C  0.16470259  0.28785825  0.46807125     0.18900
C170        C  0.12118301  0.28827600  0.46746221    -0.10300
C171        C  0.09887410  0.28898598  0.49665311    -0.11100
C172        C  0.11987768  0.28928878  0.52671370     0.20400
C173        C  0.16376828  0.28962949  0.52730134    -0.13100
C174        C  0.18607056  0.28892215  0.49812062    -0.11400
C175        C  0.09535026  0.28685264  0.55686651     0.01400
C176        C  0.07386512  0.28199203  0.58211857    -0.31400
C177        C  0.18626720  0.28414398  0.43805262     0.02800
C178        C  0.20305519  0.27856004  0.41315500    -0.33100
H179        H  0.10411452  0.28726960  0.44446280     0.13800
H180        H  0.06487058  0.28849611  0.49578452     0.13600
H181        H  0.18034651  0.28963884  0.55031145     0.13500
H182        H  0.21957670  0.28841802  0.49901249     0.12500
C183        C  0.29279991  0.16497847  0.19588379     0.18900
C184        C  0.31741915  0.19206140  0.16826203    -0.10300
C185        C  0.31680830  0.16884540  0.13923865    -0.11100
C186        C  0.29157284  0.11838348  0.13764262     0.20400
C187        C  0.26765796  0.09138773  0.16542432    -0.13100
C188        C  0.26826851  0.11455708  0.19438992    -0.11400
C189        C  0.28820281  0.09412971  0.10730186     0.01400
C190        C  0.28231218  0.07233233  0.08215966    -0.31400
C191        C  0.29059948  0.18847313  0.22530045     0.02800
C192        C  0.28517461  0.20560116  0.25003296    -0.33100
H193        H  0.33639269  0.23105053  0.16899790     0.13800
H194        H  0.33531735  0.19020269  0.11794831     0.13600
H195        H  0.24785970  0.05239737  0.16454684     0.13500
H196        H  0.24893304  0.09314014  0.21546750     0.12500
C197        C  0.83197083  0.70691270  0.47039967     0.18900
C198        C  0.87685818  0.70933608  0.47051890    -0.10300
C199        C  0.89912409  0.70999018  0.50007682    -0.11100
C200        C  0.87672871  0.70824364  0.52978660     0.20400
C201        C  0.83149012  0.70504588  0.52966627    -0.13100
C202        C  0.80921820  0.70438547  0.50010403    -0.11400
C203        C  0.90114953  0.71203305  0.56024859     0.01400
C204        C  0.92295357  0.71781228  0.58546695    -0.31400
C205        C  0.81044887  0.70942521  0.43996520     0.02800
C206        C  0.79383507  0.71435744  0.41469797    -0.33100
H207        H  0.89500373  0.71153286  0.44779532     0.13800
H208        H  0.93416234  0.71267086  0.49976037     0.13600
H209        H  0.81381238  0.70387306  0.55239989     0.13500
H210        H  0.77464024  0.70272230  0.50042541     0.12500
C211        C  0.95630127  0.95204458  0.32939069     0.18900
C212        C  0.97226893  0.97976021  0.35774590    -0.10300
C213        C  0.01580067  0.02336580  0.35759596    -0.11100
C214        C  0.04351263  0.03940736  0.32909985     0.20400
C215        C  0.02763971  0.01163170  0.30074934    -0.13100
C216        C  0.98407298  0.96799297  0.30089912    -0.11400
C217        C  0.08810297  0.08441091  0.32901345     0.01400
C218        C  0.12536825  0.12221402  0.32941725    -0.31400
C219        C  0.91137630  0.90737356  0.32958121     0.02800
C220        C  0.87365303  0.87001924  0.33007634    -0.33100
H221        H  0.95106263  0.96771582  0.37989196     0.13800
H222        H  0.02780328  0.04459673  0.37965186     0.13600
H223        H  0.04883763  0.02372659  0.27860264     0.13500
H224        H  0.97201835  0.94677233  0.27884238     0.12500
C225        C  0.54256559  0.54049511  0.33438360     0.18900
C226        C  0.54079894  0.49792802  0.34474989    -0.10300
C227        C  0.49709347  0.45436420  0.34455151    -0.11100
C228        C  0.45494303  0.45315642  0.33398197     0.20400
C229        C  0.45671909  0.49572136  0.32361217    -0.13100
C230        C  0.50041717  0.53927773  0.32381027    -0.11400
C231        C  0.40995636  0.40830618  0.33370346     0.01400
C232        C  0.37229856  0.37073842  0.33335967    -0.31400
C233        C  0.58757069  0.58533173  0.33447035     0.02800
C234        C  0.62524614  0.62289152  0.33430568    -0.33100
H235        H  0.57316051  0.49841899  0.35294866     0.13800
H236        H  0.49616733  0.42168421  0.35260331     0.13600
H237        H  0.42437300  0.49522457  0.31536912     0.13500
H238        H  0.50135005  0.57194304  0.31571366     0.12500
C239        C  0.70666253  0.87626881  0.13774260     0.18900
C240        C  0.68719611  0.82616149  0.13820791    -0.10300
C241        C  0.68666839  0.80252818  0.16719619    -0.11100
C242        C  0.70560649  0.82882614  0.19592710     0.20400
C243        C  0.72417748  0.87877820  0.19556908    -0.13100
C244        C  0.72470708  0.90237962  0.16661972    -0.11400
C245        C  0.70837854  0.80527992  0.22535356     0.01400
C246        C  0.71401970  0.78804473  0.25011621    -0.31400
C247        C  0.71048558  0.90128343  0.10747141     0.02800
C248        C  0.71661098  0.92338381  0.08226503    -0.33100
H249        H  0.67327758  0.80551865  0.11607285     0.13800
H250        H  0.67234042  0.76393653  0.16705793     0.13600
H251        H  0.73908434  0.89961072  0.21752658     0.13500
H252        H  0.74002402  0.94111970  0.16662855     0.12500
loop_ 
_geom_bond_atom_site_label_1 
_geom_bond_atom_site_label_2 
_geom_bond_distance 
_geom_bond_site_symmetry_2 
_ccdc_geom_bond_type 
O1            V9   1.901       .  S
O1           C11   1.263       .  A
O2            V9   1.899       .  S
O2           C12   1.262       .  A
O3            V9   1.904       .  S
O3           C13   1.264       .  A
O4            V9   1.904       .  S
O4           C14   1.264       .  A
O5           V10   1.907       .  S
O5           C14   1.264       .  A
O6           V10   1.906       .  S
O6           C13   1.264       .  A
O7           V10   1.898       .  S
O7           C12   1.262       .  A
O8           V10   1.900       .  S
O8           C11   1.263       .  A
V9           V10   2.090       .  T
C11         C234   1.436       .  S
C12         C220   1.432       .  S
C13         C246   1.442       .  S
C14         C206   1.443       .  S
O15          V23   1.900       .  S
O15          C25   1.263       .  A
O16          V23   1.898       .  S
O16          C26   1.262       .  A
O17          V23   1.906       .  S
O17          C27   1.264       .  A
O18          V23   1.905       .  S
O18          C28   1.264       .  A
O19          V24   1.906       .  S
O19          C28   1.264       .  A
O20          V24   1.905       .  S
O20          C27   1.264       .  A
O21          V24   1.899       .  S
O21          C26   1.262       .  A
O22          V24   1.901       .  S
O22          C25   1.263       .  A
V23          V24   2.090       .  T
C25         C232   1.436       .  S
C26         C218   1.432       .  S
C27         C192   1.442       .  S
C28         C178   1.443       .  S
O29          V37   1.900       .  S
O29          C39   1.263   1_455  A
O30          V37   1.899       .  S
O30          C40   1.262       .  A
O31          V37   1.905       .  S
O31          C41   1.264       .  A
O32          V37   1.904   1_655  S
O32          C42   1.264       .  A
O33          V38   1.907       .  S
O33          C42   1.264       .  A
O34          V38   1.906   1_455  S
O34          C41   1.264       .  A
O35          V38   1.898       .  S
O35          C40   1.262   1_655  A
O36          V38   1.900       .  S
O36          C39   1.263       .  A
V37          V38   2.090   1_455  T
C39         C150   1.435       .  S
C40         C162   1.432       .  S
C41         C134   1.442       .  S
C42         C204   1.443       .  S
O43          V51   1.900       .  S
O43          C53   1.263       .  A
O44          V51   1.898       .  S
O44          C54   1.262       .  A
O45          V51   1.905       .  S
O45          C55   1.264       .  A
O46          V51   1.905   1_455  S
O46          C56   1.264       .  A
O47          V52   1.907       .  S
O47          C56   1.264       .  A
O48          V52   1.906   1_655  S
O48          C55   1.264       .  A
O49          V52   1.898       .  S
O49          C54   1.262   1_455  A
O50          V52   1.901       .  S
O50          C53   1.263   1_455  A
V51          V52   2.090   1_655  T
C53         C148   1.435       .  S
C54         C164   1.432       .  S
C55         C120   1.442       .  S
C56         C176   1.443       .  S
O57          V65   1.900       .  S
O57          C67   1.263   1_556  A
O58          V65   1.899       .  S
O58          C68   1.262       .  A
O59          V65   1.905   1_554  S
O59          C69   1.264       .  A
O60          V65   1.905   1_545  S
O60          C70   1.264       .  A
O61          V66   1.906   1_556  S
O61          C70   1.264       .  A
O62          V66   1.905   1_565  S
O62          C69   1.264       .  A
O63          V66   1.899       .  S
O63          C68   1.262   1_544  A
O64          V66   1.901       .  S
O64          C67   1.263   1_545  A
V65          V66   2.090   1_566  T
C67         C108   1.435   1_565  S
C68          C92   1.433       .  S
C69         C248   1.442       .  S
C70         C122   1.442       .  S
O71          V79   1.900       .  S
O71          C81   1.263   1_546  A
O72          V79   1.899       .  S
O72          C82   1.262   1_545  A
O73          V79   1.906   1_554  S
O73          C83   1.264       .  A
O74          V79   1.905   1_565  S
O74          C84   1.264       .  A
O75          V80   1.906   1_556  S
O75          C84   1.264       .  A
O76          V80   1.905       .  S
O76          C83   1.264   1_565  A
O77          V80   1.899       .  S
O77          C82   1.262   1_554  A
O78          V80   1.901       .  S
O78          C81   1.263       .  A
V79          V80   2.090   1_546  T
C81         C106   1.435       .  S
C82          C94   1.433       .  S
C83         C190   1.442       .  S
C84         C136   1.442       .  S
C85          C93   1.438       .  S
C85          C86   1.401   1_556  A
C85          C90   1.401   1_565  A
C86          C87   1.398   1_455  A
C86          H95   1.083       .  S
C87          C88   1.401   1_554  A
C87          H96   1.084       .  S
C88          C91   1.438       .  S
C88          C89   1.401   1_565  A
C89          C90   1.398   1_655  A
C89          H97   1.083       .  S
C90          H98   1.084       .  S
C91          C92   1.205       .  T
C93          C94   1.205       .  T
C99         C107   1.440       .  S
C99         C100   1.401   1_565  A
C99         C104   1.402       .  A
C100        C101   1.399       .  A
C100        H109   1.084       .  S
C101        C102   1.401   1_545  A
C101        H110   1.083       .  S
C102        C105   1.440       .  S
C102        C103   1.401       .  A
C103        C104   1.399       .  A
C103        H111   1.084   1_554  S
C104        H112   1.083   1_554  S
C105        C106   1.206       .  T
C107        C108   1.206   1_565  T
C113        C121   1.447       .  S
C113        C114   1.402       .  A
C113        C118   1.403       .  A
C114        C115   1.400       .  A
C114        H123   1.084       .  S
C115        C116   1.402       .  A
C115        H124   1.083       .  S
C116        C119   1.447       .  S
C116        C117   1.403       .  A
C117        C118   1.403       .  A
C117        H125   1.084       .  S
C118        H126   1.083       .  S
C119        C120   1.210       .  T
C121        C122   1.210       .  T
C127        C135   1.447       .  S
C127        C128   1.402       .  A
C127        C132   1.403       .  A
C128        C129   1.401       .  A
C128        H137   1.083       .  S
C129        C130   1.402       .  A
C129        H138   1.084       .  S
C130        C133   1.447       .  S
C130        C131   1.403       .  A
C131        C132   1.403       .  A
C131        H139   1.083       .  S
C132        H140   1.083       .  S
C133        C134   1.210       .  T
C135        C136   1.210       .  T
C141        C149   1.440       .  S
C141        C142   1.401   1_655  A
C141        C146   1.401       .  A
C142        C143   1.399       .  A
C142        H151   1.083       .  S
C143        C144   1.401   1_455  A
C143        H152   1.084       .  S
C144        C147   1.440       .  S
C144        C145   1.401       .  A
C145        C146   1.399       .  A
C145        H153   1.083       .  S
C146        H154   1.084       .  S
C147        C148   1.206       .  T
C149        C150   1.206       .  T
C155        C163   1.437   1_455  S
C155        C156   1.401       .  A
C155        C160   1.401   1_455  A
C156        C157   1.398   1_545  A
C156        H165   1.084       .  S
C157        C158   1.401       .  A
C157        H166   1.083       .  S
C158        C161   1.437       .  S
C158        C159   1.401   1_455  A
C159        C160   1.398   1_565  A
C159        H167   1.084       .  S
C160        H168   1.083       .  S
C161        C162   1.204       .  T
C163        C164   1.204       .  T
C169        C177   1.448       .  S
C169        C170   1.403       .  A
C169        C174   1.403       .  A
C170        C171   1.402       .  A
C170        H179   1.083       .  S
C171        C172   1.403       .  A
C171        H180   1.084       .  S
C172        C175   1.448       .  S
C172        C173   1.403       .  A
C173        C174   1.402       .  A
C173        H181   1.083       .  S
C174        H182   1.084       .  S
C175        C176   1.211       .  T
C177        C178   1.211       .  T
C183        C191   1.447       .  S
C183        C184   1.403       .  A
C183        C188   1.402       .  A
C184        C185   1.403       .  A
C184        H193   1.084       .  S
C185        C186   1.403       .  A
C185        H194   1.083       .  S
C186        C189   1.447       .  S
C186        C187   1.402       .  A
C187        C188   1.400       .  A
C187        H195   1.084       .  S
C188        H196   1.083       .  S
C189        C190   1.210       .  T
C191        C192   1.210       .  T
C197        C205   1.448       .  S
C197        C198   1.403       .  A
C197        C202   1.403       .  A
C198        C199   1.402       .  A
C198        H207   1.083       .  S
C199        C200   1.403       .  A
C199        H208   1.084       .  S
C200        C203   1.448       .  S
C200        C201   1.403       .  A
C201        C202   1.402       .  A
C201        H209   1.083       .  S
C202        H210   1.084       .  S
C203        C204   1.211       .  T
C205        C206   1.211       .  T
C211        C219   1.437       .  S
C211        C212   1.401       .  A
C211        C216   1.401       .  A
C212        C213   1.397   1_665  A
C212        H221   1.083       .  S
C213        C214   1.400       .  A
C213        H222   1.084       .  S
C214        C217   1.437       .  S
C214        C215   1.401       .  A
C215        C216   1.398   1_445  A
C215        H223   1.083       .  S
C216        H224   1.084       .  S
C217        C218   1.204       .  T
C219        C220   1.204       .  T
C225        C233   1.441       .  S
C225        C226   1.402       .  A
C225        C230   1.401       .  A
C226        C227   1.399       .  A
C226        H235   1.084       .  S
C227        C228   1.402       .  A
C227        H236   1.083       .  S
C228        C231   1.441       .  S
C228        C229   1.401       .  A
C229        C230   1.399       .  A
C229        H237   1.084       .  S
C230        H238   1.083       .  S
C231        C232   1.206       .  T
C233        C234   1.206       .  T
C239        C247   1.447       .  S
C239        C240   1.403       .  A
C239        C244   1.402       .  A
C240        C241   1.403       .  A
C240        H249   1.083       .  S
C241        C242   1.403       .  A
C241        H250   1.084       .  S
C242        C245   1.447       .  S
C242        C243   1.402       .  A
C243        C244   1.401       .  A
C243        H251   1.083       .  S
C244        H252   1.084       .  S
C245        C246   1.210       .  T
C247        C248   1.210       .  T
