geometry optimzed in LAMMPS
_audit_creation_date              2020-11-30 
_audit_creation_method            'lammps2cif' 
_symmetry_space_group_name_H-M    'P1' 
_symmetry_Int_Tables_number       1 
_symmetry_cell_setting            triclinic 
loop_ 
_symmetry_equiv_pos_as_xyz 
  x,y,z 
_cell_length_a                    32.611120492923625 
_cell_length_b                    32.6266909330102 
_cell_length_c                    40.67403387428807 
_cell_angle_alpha                 90.71006626005712 
_cell_angle_beta                  89.28706715958344 
_cell_angle_gamma                 120.83464126992192 
loop_ 
_atom_site_label 
_atom_site_type_symbol 
_atom_site_fract_x 
_atom_site_fract_y 
_atom_site_fract_z 
_atom_site_charge 
O1          O  0.96504005  0.11864278  0.08348670    -0.53030
C2          C  0.85591601  0.04087403  0.02738063     0.79600
O3          O  0.86707660  0.98518559  0.13032605    -0.54190
C4          C  0.98099683  0.12072636  0.11197856     0.79570
C5          C  0.82319685  0.08573497  0.12476240     0.81960
Cd6        Cd  0.88307631  0.05448011  0.09527212     1.37470
O7          O  0.89483781  0.07624757  0.03704182    -0.53030
O8          O  0.86035259  0.11336215  0.10853603    -0.51840
C9          C  0.88438780  0.96908741  0.10933207     0.81920
O10         O  0.81320367  0.04306436  0.12799338    -0.54210
O11         O  0.82815988  0.01245674  0.04911033    -0.52660
O12         O  0.95133059  0.09445224  0.13369009    -0.52650
O13         O  0.89845390  0.99081827  0.08236014    -0.51820
O14         O  0.22268582  0.16758539  0.03939345    -0.53030
C15         C  0.17372581  0.07708644  0.11160107     0.79600
O16         O  0.26731784  0.24393213  0.13212519    -0.54190
C17         C  0.22729189  0.20677040  0.03064837     0.79570
C18         C  0.12068430  0.17244521  0.11207343     0.81960
Cd19       Cd  0.20883193  0.17582506  0.09775372     1.37470
O20         O  0.18945236  0.09462340  0.08352319    -0.53030
O21         O  0.12988433  0.16050204  0.08461669    -0.51840
C22         C  0.29949406  0.23337161  0.12915983     0.81920
O23         O  0.15338491  0.18893626  0.13343174    -0.54210
O24         O  0.17683536  0.10550091  0.13417682    -0.52660
O25         O  0.22554844  0.23316913  0.05299730    -0.52650
O26         O  0.28966605  0.19678998  0.11228545    -0.51820
O27         O  0.93432667  0.86388093  0.08168007    -0.53030
C28         C  0.01274807  0.83270132  0.02657550     0.79600
O29         O  0.06608658  0.90379798  0.13023611    -0.54190
C30         C  0.93233514  0.87926526  0.10994866     0.79570
C31         C  0.96780826  0.75741634  0.12485489     0.81960
Cd32       Cd  0.99806663  0.84767510  0.09438720     1.37460
O33         O  0.97622542  0.83371000  0.03607310    -0.53030
O34         O  0.93955390  0.76507464  0.10880497    -0.51840
C35         C  0.08297197  0.93694707  0.10922952     0.81920
O36         O  0.01050132  0.79149119  0.12734276    -0.54210
O37         O  0.04167894  0.83628167  0.04843850    -0.52660
O38         O  0.95812252  0.87705557  0.13197085    -0.52650
O39         O  0.06227972  0.92789959  0.08183552    -0.51830
O40         O  0.12441616  0.95890842  0.87619984    -0.53030
C41         C  0.04148788  0.84718168  0.92912253     0.79600
O42         O  0.99295079  0.86602076  0.82553233    -0.54190
C43         C  0.12837429  0.97653311  0.84804010     0.79570
C44         C  0.09138173  0.81830377  0.83228058     0.81960
Cd45       Cd  0.05977797  0.87804089  0.86195071     1.37470
O46         O  0.07810212  0.88601806  0.92073270    -0.53030
O47         O  0.11830191  0.85431346  0.84971602    -0.51840
C48         C  0.97657520  0.88296927  0.84661249     0.81920
O49         O  0.04923941  0.80939589  0.82782782    -0.54210
O50         O  0.01389897  0.82112163  0.90643824    -0.52660
O51         O  0.10296229  0.94827560  0.82541626    -0.52650
O52         O  0.99683869  0.89481047  0.87418562    -0.51820
O53         O  0.10772298  0.18828646  0.87786881    -0.53030
C54         C  0.21754112  0.22075644  0.93313895     0.79600
O55         O  0.20291685  0.15085627  0.83002955    -0.54190
C56         C  0.09161814  0.17434930  0.84923709     0.79570
C57         C  0.24881279  0.29841650  0.83661776     0.81960
Cd58       Cd  0.18900968  0.20609104  0.86551985     1.37470
O59         O  0.17882004  0.21697787  0.92406108    -0.53030
O60         O  0.21242522  0.28841862  0.85379915    -0.51840
C61         C  0.18331776  0.11696618  0.85045485     0.81920
O62         O  0.25830865  0.26566694  0.83220508    -0.54210
O63         O  0.24460632  0.21986046  0.91093709    -0.52660
O64         O  0.12096063  0.17772198  0.82728731    -0.52650
O65         O  0.16937146  0.12536150  0.87738471    -0.51830
O66         O  0.87528215  0.93763558  0.87393594    -0.53030
C67         C  0.84492653  0.01623558  0.92942611     0.79600
O68         O  0.91873593  0.07058650  0.82660565    -0.54190
C69         C  0.89040913  0.93543479  0.84561517     0.79570
C70         C  0.76986897  0.97328268  0.83190302     0.81960
Cd71       Cd  0.86046076  0.00239185  0.86164440     1.37460
O72         O  0.84627106  0.97997443  0.91975084    -0.53030
O73         O  0.77741511  0.94492605  0.84789289    -0.51840
C74         C  0.95098530  0.08672051  0.84829028     0.81920
O75         O  0.80440462  0.01566844  0.82884629    -0.54210
O76         O  0.84866739  0.04545295  0.90774288    -0.52660
O77         O  0.88879938  0.96172784  0.82371899    -0.52650
O78         O  0.94041972  0.06569141  0.87559290    -0.51770
O79         O  0.85848905  0.42823923  0.41567529    -0.53030
C80         C  0.89360562  0.54055468  0.36291325     0.79600
O81         O  0.82254513  0.52248756  0.46636465    -0.54190
C82         C  0.84390928  0.41091152  0.44395737     0.79570
C83         C  0.96901738  0.56670588  0.46026459     0.81960
Cd84       Cd  0.87738307  0.50928518  0.42997722     1.37460
O85         O  0.88937063  0.50137887  0.37125730    -0.53030
O86         O  0.95891053  0.53065805  0.44267744    -0.51840
C87         C  0.78883999  0.50439884  0.44574610     0.81920
O88         O  0.93673593  0.57693347  0.46438130    -0.54210
O89         O  0.89251397  0.56684673  0.38562469    -0.52660
O90         O  0.84738641  0.43939395  0.46659656    -0.52650
O91         O  0.79720785  0.49163179  0.41832200    -0.51820
O92         O  0.63135186  0.44760843  0.42010747    -0.53030
C93         C  0.51981426  0.36690898  0.36624585     0.79600
O94         O  0.53609881  0.31416708  0.46851713    -0.54190
C95         C  0.64865446  0.45039278  0.44822300     0.79570
C96         C  0.49128984  0.41457414  0.46406096     0.81960
Cd97       Cd  0.55021673  0.38289935  0.43347738     1.37460
O98         O  0.55906522  0.40270838  0.37496847    -0.53030
O99         O  0.52716483  0.44156064  0.44652953    -0.51840
C100        C  0.55334144  0.29839882  0.44721042     0.81920
O101        O  0.48211525  0.37229625  0.46812249    -0.54210
O102        O  0.49314061  0.33914551  0.38864862    -0.52660
O103        O  0.62011584  0.42419905  0.47047003    -0.52650
O104        O  0.56649527  0.32002328  0.42015899    -0.51830
O105        O  0.60535330  0.19592536  0.41744172    -0.53030
C106        C  0.68397175  0.16591341  0.36079689     0.79600
O107        O  0.73929602  0.23725482  0.46351711    -0.54190
C108        C  0.60352578  0.21052024  0.44602680     0.79570
C109        C  0.64041496  0.08988247  0.45819448     0.81960
Cd110      Cd  0.67001778  0.18056024  0.42873376     1.37460
O111        O  0.64778373  0.16735795  0.37056048    -0.53030
O112        O  0.61226704  0.09743801  0.44192832    -0.51840
C113        C  0.75465561  0.27049188  0.44262116     0.81920
O114        O  0.68280311  0.12433903  0.46144846    -0.54210
O115        O  0.71298638  0.16906513  0.38244603    -0.52660
O116        O  0.62994072  0.20831382  0.46755013    -0.52650
O117        O  0.73260574  0.26124198  0.41576768    -0.51830
O118        O  0.53699582  0.26267321  0.21187314    -0.53030
C119        C  0.50591901  0.34042379  0.26857256     0.79600
O120        O  0.57692672  0.39625642  0.16577410    -0.54190
C121        C  0.55180493  0.26112030  0.18330400     0.79570
C122        C  0.43018793  0.29643456  0.17088725     0.81960
Cd123      Cd  0.52087266  0.32679532  0.20060694     1.37470
O124        O  0.50773237  0.30446404  0.25878542    -0.53030
O125        O  0.43803550  0.26841901  0.18705463    -0.51840
C126        C  0.61032199  0.41188308  0.18656735     0.81920
O127        O  0.46432005  0.33902147  0.16790962    -0.54210
O128        O  0.50880830  0.36932398  0.24693518    -0.52660
O129        O  0.54939346  0.28743227  0.16180516    -0.52650
O130        O  0.60143399  0.38986263  0.21340831    -0.51830
O131        O  0.78995244  0.29111208  0.20916068    -0.53030
C132        C  0.71023742  0.17976451  0.26310642     0.79600
O133        O  0.65693260  0.19548789  0.16070882    -0.54190
C134        C  0.79259611  0.30830185  0.18102856     0.79570
C135        C  0.75726057  0.15088820  0.16530046     0.81960
Cd136      Cd  0.72565048  0.20982305  0.19582992     1.37460
O137        O  0.74594182  0.21899922  0.25425719    -0.53030
O138        O  0.78446356  0.18704017  0.18252483    -0.51840
C139        C  0.64072013  0.21216930  0.18210518     0.81920
O140        O  0.71485722  0.14151462  0.16149501    -0.54210
O141        O  0.68231921  0.15298142  0.24080989    -0.52660
O142        O  0.76657780  0.27963519  0.15878136    -0.52650
O143        O  0.66213394  0.22514767  0.20924226    -0.51830
O144        O  0.76806116  0.51732413  0.21300403    -0.53030
C145        C  0.88051596  0.55344836  0.26574211     0.79600
O146        O  0.86312038  0.48178659  0.16262837    -0.54190
C147        C  0.75057050  0.50209694  0.18484441     0.79570
C148        C  0.90609143  0.62730244  0.16745392     0.81960
Cd149      Cd  0.84918881  0.53636758  0.19867117     1.37470
O150        O  0.84132452  0.54911776  0.25728851    -0.53030
O151        O  0.87007447  0.61745727  0.18502239    -0.51840
C152        C  0.84513578  0.44816854  0.18329581     0.81920
O153        O  0.91656592  0.59514208  0.16388395    -0.54210
O154        O  0.90684064  0.55217261  0.24312389    -0.52660
O155        O  0.77897975  0.50527233  0.16223474    -0.52650
O156        O  0.83198341  0.45643316  0.21060528    -0.51820
O157        O  0.27691857  0.53584686  0.75371082    -0.53030
C158        C  0.35586324  0.50492778  0.69932487     0.79600
O159        O  0.40875022  0.57925305  0.80242705    -0.54190
C160        C  0.27426325  0.55106080  0.78189500     0.79570
C161        C  0.31206059  0.43046468  0.79704037     0.81960
Cd162      Cd  0.34132264  0.52083692  0.76691058     1.37460
O163        O  0.31936412  0.50606906  0.70871286    -0.53030
O164        O  0.28367617  0.43795478  0.78102099    -0.51840
C165        C  0.42550596  0.61133724  0.78063053     0.81920
O166        O  0.35449165  0.46496523  0.79998573    -0.54210
O167        O  0.38500830  0.50906971  0.72120889    -0.52660
O168        O  0.30008463  0.54936986  0.80413362    -0.52650
O169        O  0.40517338  0.60061361  0.75306827    -0.51830
O170        O  0.29907811  0.78567168  0.75047481    -0.53030
C171        C  0.18850875  0.70307178  0.69656816     0.79600
O172        O  0.20501995  0.65401603  0.80058544    -0.54190
C173        C  0.31615412  0.78944699  0.77880959     0.79570
C174        C  0.15759744  0.75246401  0.79296402     0.81960
Cd175      Cd  0.21791014  0.72100474  0.76403652     1.37460
O176        O  0.22718875  0.73961934  0.70527771    -0.53030
O177        O  0.19392905  0.77945606  0.77580430    -0.51840
C178        C  0.22233845  0.63766657  0.77977710     0.81920
O179        O  0.14859467  0.71031631  0.79743445    -0.54210
O180        O  0.16193262  0.67541040  0.71904922    -0.52660
O181        O  0.28744371  0.76391908  0.80120416    -0.52650
O182        O  0.23480515  0.65804058  0.75226161    -0.51830
O183        O  0.52777837  0.76795489  0.75120774    -0.53030
C184        C  0.56118432  0.87709813  0.69544685     0.79600
O185        O  0.49001230  0.86301410  0.79836584    -0.54190
C186        C  0.51337803  0.75192293  0.77979618     0.79570
C187        C  0.63775495  0.90951531  0.79241622     0.81960
Cd188      Cd  0.54568960  0.84931491  0.76322288     1.37470
O189        O  0.55732142  0.83851271  0.70490522    -0.53030
O190        O  0.62778292  0.87266118  0.77583335    -0.51840
C191        C  0.45656572  0.84407602  0.77756880     0.81920
O192        O  0.60505860  0.91924446  0.79615422    -0.54210
O193        O  0.55997604  0.90435742  0.71734494    -0.52660
O194        O  0.51655076  0.78133549  0.80160886    -0.52650
O195        O  0.46542910  0.83061489  0.75060529    -0.51830
O196        O  0.43758390  0.84899598  0.54345006    -0.53030
C197        C  0.54867555  0.88628892  0.59764818     0.79600
O198        O  0.53270587  0.81235771  0.49523868    -0.54190
C199        C  0.42066727  0.83345145  0.51520787     0.79570
C200        C  0.57734840  0.95886661  0.49926409     0.81960
Cd201      Cd  0.51900976  0.86800967  0.53026744     1.37460
O202        O  0.50959421  0.88158709  0.58848471    -0.53030
O203        O  0.54047610  0.94895588  0.51583158    -0.51840
C204        C  0.51538569  0.77960616  0.51656200     0.81920
O205        O  0.58786775  0.92665615  0.49638441    -0.54210
O206        O  0.57553561  0.88466273  0.57560312    -0.52660
O207        O  0.44955282  0.83646771  0.49301394    -0.52650
O208        O  0.50275608  0.78886447  0.54372773    -0.51830
O209        O  0.46051575  0.62377035  0.54548413    -0.53030
C210        C  0.38157669  0.51516921  0.60147204     0.79600
O211        O  0.32767443  0.52684122  0.49773742    -0.54190
C212        C  0.46304787  0.63981437  0.51696033     0.79570
C213        C  0.42678084  0.48126774  0.50445310     0.81960
Cd214      Cd  0.39609948  0.54196052  0.53347800     1.37460
O215        O  0.41746634  0.55369029  0.59180245    -0.53030
O216        O  0.45459539  0.51847352  0.52055545    -0.51840
C217        C  0.31126625  0.54403552  0.51858188     0.81920
O218        O  0.38419849  0.47157934  0.50115467    -0.54210
O219        O  0.35306024  0.48759583  0.57971700    -0.52660
O220        O  0.43694501  0.61025345  0.49514693    -0.52650
O221        O  0.33239291  0.55760322  0.54579591    -0.51830
O222        O  0.20689575  0.59548455  0.54493557    -0.53030
C223        C  0.17558728  0.67428135  0.59910100     0.79600
O224        O  0.24763271  0.72610210  0.49523127    -0.54190
C225        C  0.22213502  0.59288465  0.51674668     0.79570
C226        C  0.10023763  0.62878036  0.50131062     0.81960
Cd227      Cd  0.19075902  0.65900623  0.53148177     1.37460
O228        O  0.17663994  0.63769960  0.58985904    -0.53030
O229        O  0.10799400  0.60059965  0.51735104    -0.51840
C230        C  0.28034292  0.74354688  0.51657725     0.81920
O231        O  0.13443099  0.67136073  0.49852091    -0.54210
O232        O  0.17934708  0.70306352  0.57706915    -0.52660
O233        O  0.21985985  0.61822640  0.49441186    -0.52650
O234        O  0.27067410  0.72363139  0.54427577    -0.51830
C235        C  0.24503778  0.56572336  0.51143208    -0.08490
C236        C  0.27205582  0.55080381  0.51184602    -0.10050
C237        C  0.37020379  0.80972156  0.50965047    -0.08490
C238        C  0.32761279  0.78255600  0.50991712    -0.10050
C239        C  0.50729032  0.73262919  0.51041518    -0.08490
C240        C  0.49117510  0.69010497  0.51068992    -0.10050
C241        C  0.56041191  0.89057292  0.63187598    -0.08490
C242        C  0.56413982  0.88783552  0.66110037    -0.10050
C243        C  0.17684882  0.69248457  0.66242933    -0.08490
C244        C  0.17296813  0.68382626  0.63335119    -0.10050
C245        C  0.40932779  0.83517386  0.78409617    -0.08490
C246        C  0.36664850  0.81835513  0.78429499    -0.10050
C247        C  0.37256075  0.50474716  0.63586207    -0.08490
C248        C  0.36482716  0.50167464  0.66505392    -0.10050
C249        C  0.23047676  0.59940930  0.78682205    -0.08490
C250        C  0.24637472  0.57320633  0.78729633    -0.10050
C251        C  0.46413504  0.65905666  0.78661917    -0.08490
C252        C  0.49066943  0.70174314  0.78618556    -0.10050
C253        C  0.83694207  0.40136151  0.17625463    -0.08490
C254        C  0.82077051  0.35882669  0.17570067    -0.10050
C255        C  0.57442497  0.23400005  0.17667247    -0.08490
C256        C  0.60139389  0.21901707  0.17612129    -0.10050
C257        C  0.65745027  0.45126809  0.18013783    -0.08490
C258        C  0.70001832  0.47850946  0.17976620    -0.10050
C259        C  0.62415491  0.04406905  0.47249226    -0.08490
C260        C  0.60534723  0.00482595  0.48436388    -0.10050
C261        C  0.70075814  0.16770388  0.29724353    -0.08490
C262        C  0.69283815  0.16354020  0.32640499    -0.10050
C263        C  0.50762976  0.35718493  0.33213280    -0.08490
C264        C  0.50345758  0.34920223  0.30297557    -0.10050
C265        C  0.56060758  0.25934593  0.45320158    -0.08490
C266        C  0.57597666  0.23269993  0.45265289    -0.10050
C267        C  0.46291012  0.43202525  0.47873357    -0.08490
C268        C  0.44362341  0.45202275  0.49039120    -0.10050
C269        C  0.89673754  0.55294255  0.32887462    -0.08490
C270        C  0.89285448  0.55679707  0.29980644    -0.10050
C271        C  0.79376098  0.31781789  0.44893534    -0.08490
C272        C  0.82070406  0.36043012  0.44917493    -0.10050
C273        C  0.74182922  0.49563024  0.45294399    -0.08490
C274        C  0.69919087  0.47897906  0.45353784    -0.10050
C275        C  0.01520803  0.59404375  0.47500375    -0.08490
C276        C  0.05446499  0.61246906  0.48686350    -0.10050
C277        C  0.72389952  0.95724064  0.81783130    -0.08490
C278        C  0.68428032  0.93822548  0.80648169    -0.10050
C279        C  0.27722125  0.34499982  0.82259335    -0.08490
C280        C  0.29604589  0.38458032  0.81121970    -0.10050
C281        C  0.04142250  0.15189609  0.84291171    -0.08490
C282        C  0.99871036  0.12543618  0.84243230    -0.10050
C283        C  0.10875363  0.78948746  0.81814232    -0.08490
C284        C  0.12857961  0.76977454  0.80684943    -0.10050
C285        C  0.17427863  0.06978467  0.84355362    -0.08490
C286        C  0.15736735  0.02711147  0.84300149    -0.10050
C287        C  0.91236598  0.90748215  0.83970398    -0.08490
C288        C  0.93842987  0.89140363  0.83983017    -0.10050
C289        C  0.03076499  0.83479499  0.96315975    -0.08490
C290        C  0.02211743  0.83042663  0.99224188    -0.10050
C291        C  0.93313945  0.67305141  0.15211716    -0.08490
C292        C  0.95145535  0.71193762  0.13973191    -0.10050
C293        C  0.23153426  0.21909386  0.99653881    -0.08490
C294        C  0.22862312  0.22326124  0.96739183    -0.10050
C295        C  0.14969156  0.02650941  0.11658287    -0.08490
C296        C  0.12226776  0.98399582  0.11599113    -0.10050
C297        C  0.38442867  0.27985498  0.15638893    -0.08490
C298        C  0.34531584  0.26104774  0.14430099    -0.10050
C299        C  0.84521576  0.03228759  0.99300874    -0.08490
C300        C  0.84190636  0.02487093  0.96378197    -0.10050
C301        C  0.07380287  0.16448770  0.11847179    -0.08490
C302        C  0.03129642  0.14856233  0.11829407    -0.10050
C303        C  0.89072543  0.92952563  0.11564434    -0.08490
C304        C  0.90537984  0.90229012  0.11567722    -0.10050
C305        C  0.79431114  0.10287065  0.13899357    -0.08490
C306        C  0.77457042  0.12238059  0.15068750    -0.10050
loop_ 
_geom_bond_atom_site_label_1 
_geom_bond_atom_site_label_2 
_geom_bond_distance 
_geom_bond_site_symmetry_2 
_ccdc_geom_bond_type 
O1            C4   1.263       .  A
O1           Cd6   2.452       .  S
C2           O11   1.265       .  A
C2            O7   1.264       .  A
C2          C299   1.434   1_554  S
O3            C9   1.267       .  A
O3           Cd6   2.504   1_565  S
C4           O12   1.264       .  A
C4          C302   1.435   1_655  S
C5           O10   1.265       .  A
C5            O8   1.262       .  A
C5          C305   1.433       .  S
Cd6          O13   2.424   1_545  S
Cd6          O12   2.481       .  S
Cd6          O11   2.473       .  S
Cd6           O7   2.450       .  S
Cd6          O10   2.484       .  S
Cd6           O8   2.440       .  S
C9           O13   1.261       .  A
C9          C303   1.434       .  S
O14          C17   1.264       .  A
O14         Cd19   2.448       .  S
C15          O24   1.264       .  A
C15          O20   1.263       .  A
C15         C295   1.434       .  S
O16          C22   1.265       .  A
O16         Cd19   2.485       .  S
C17          O25   1.265       .  A
C17         C293   1.434   1_554  S
C18          O23   1.267       .  A
C18          O21   1.261       .  A
C18         C301   1.434       .  S
Cd19         O26   2.439       .  S
Cd19         O25   2.475       .  S
Cd19         O24   2.478       .  S
Cd19         O20   2.451       .  S
Cd19         O23   2.504       .  S
Cd19         O21   2.423       .  S
C22          O26   1.261       .  A
C22         C298   1.433       .  S
O27          C30   1.263       .  A
O27         Cd32   2.455       .  S
C28          O37   1.265       .  A
C28          O33   1.264   1_455  A
C28         C290   1.435   1_554  S
O29          C35   1.266       .  A
O29         Cd32   2.500   1_455  S
C30          O38   1.264       .  A
C30         C304   1.435       .  S
C31          O36   1.264   1_655  A
C31          O34   1.262       .  A
C31         C292   1.434       .  S
Cd32         O39   2.426   1_655  S
Cd32         O38   2.479       .  S
Cd32         O37   2.472   1_655  S
Cd32         O33   2.454       .  S
Cd32         O36   2.482   1_655  S
Cd32         O34   2.447       .  S
C35          O39   1.261       .  A
C35         C296   1.434       .  S
O40          C43   1.263       .  A
O40         Cd45   2.456       .  S
C41          O50   1.265       .  A
C41          O46   1.264       .  A
C41         C289   1.435       .  S
O42          C48   1.267       .  A
O42         Cd45   2.507   1_655  S
C43          O51   1.264       .  A
C43         C286   1.436   1_565  S
C44          O49   1.265       .  A
C44          O47   1.262       .  A
C44         C283   1.435       .  S
Cd45         O52   2.425   1_455  S
Cd45         O51   2.483       .  S
Cd45         O50   2.476       .  S
Cd45         O46   2.450       .  S
Cd45         O49   2.491       .  S
Cd45         O47   2.444       .  S
C48          O52   1.261       .  A
C48         C288   1.435       .  S
O53          C56   1.263       .  A
O53         Cd58   2.452       .  S
C54          O63   1.265       .  A
C54          O59   1.264       .  A
C54         C294   1.434       .  S
O55          C61   1.267       .  A
O55         Cd58   2.509       .  S
C56          O64   1.264       .  A
C56         C281   1.435       .  S
C57          O62   1.266       .  A
C57          O60   1.261       .  A
C57         C279   1.435       .  S
Cd58         O65   2.424       .  S
Cd58         O64   2.479       .  S
Cd58         O63   2.476       .  S
Cd58         O59   2.447       .  S
Cd58         O62   2.491       .  S
Cd58         O60   2.438       .  S
C61          O65   1.261       .  A
C61         C285   1.436       .  S
O66          C69   1.263       .  A
O66         Cd71   2.455   1_565  S
C67          O76   1.265       .  A
C67          O72   1.264   1_545  A
C67         C300   1.434       .  S
O68          C74   1.267       .  A
O68         Cd71   2.504       .  S
C69          O77   1.264       .  A
C69         C287   1.436       .  S
C70          O75   1.265   1_565  A
C70          O73   1.262       .  A
C70         C277   1.435       .  S
Cd71         O78   2.424       .  S
Cd71         O77   2.483   1_545  S
Cd71         O76   2.471       .  S
Cd71         O72   2.450   1_545  S
Cd71         O75   2.489       .  S
Cd71         O73   2.443   1_545  S
C74          O78   1.261       .  A
C74         C282   1.434       .  S
O79          C82   1.263       .  A
O79         Cd84   2.452       .  S
C80          O89   1.265       .  A
C80          O85   1.264       .  A
C80         C269   1.435       .  S
O81          C87   1.267       .  A
O81         Cd84   2.506       .  S
C82          O90   1.264       .  A
C82         C272   1.434       .  S
C83          O88   1.266       .  A
C83          O86   1.261       .  A
C83         C275   1.434   1_655  S
Cd84         O91   2.423       .  S
Cd84         O90   2.477       .  S
Cd84         O89   2.477       .  S
Cd84         O85   2.447       .  S
Cd84         O88   2.487       .  S
Cd84         O86   2.439       .  S
C87          O91   1.261       .  A
C87         C273   1.435       .  S
O92          C95   1.263       .  A
O92         Cd97   2.454       .  S
C93         O102   1.265       .  A
C93          O98   1.264       .  A
C93         C263   1.434       .  S
O94         C100   1.267       .  A
O94         Cd97   2.505       .  S
C95         O103   1.264       .  A
C95         C274   1.436       .  S
C96         O101   1.265       .  A
C96          O99   1.261       .  A
C96         C267   1.433       .  S
Cd97        O104   2.422       .  S
Cd97        O103   2.482       .  S
Cd97        O102   2.474       .  S
Cd97         O98   2.448       .  S
Cd97        O101   2.487       .  S
Cd97         O99   2.439       .  S
C100        O104   1.261       .  A
C100        C265   1.434       .  S
O105        C108   1.263       .  A
O105       Cd110   2.454       .  S
C106        O115   1.265       .  A
C106        O111   1.264       .  A
C106        C262   1.434       .  S
O107        C113   1.267       .  A
O107       Cd110   2.502       .  S
C108        O116   1.264       .  A
C108        C266   1.435       .  S
C109        O114   1.265       .  A
C109        O112   1.262       .  A
C109        C259   1.434       .  S
Cd110       O117   2.423       .  S
Cd110       O116   2.479       .  S
Cd110       O115   2.471       .  S
Cd110       O111   2.451       .  S
Cd110       O114   2.483       .  S
Cd110       O112   2.442       .  S
C113        O117   1.261       .  A
C113        C271   1.434       .  S
O118        C121   1.263       .  A
O118       Cd123   2.454       .  S
C119        O128   1.265       .  A
C119        O124   1.264       .  A
C119        C264   1.434       .  S
O120        C126   1.267       .  A
O120       Cd123   2.501       .  S
C121        O129   1.264       .  A
C121        C255   1.435       .  S
C122        O127   1.265       .  A
C122        O125   1.262       .  A
C122        C297   1.433       .  S
Cd123       O130   2.423       .  S
Cd123       O129   2.479       .  S
Cd123       O128   2.471       .  S
Cd123       O124   2.452       .  S
Cd123       O127   2.481       .  S
Cd123       O125   2.442       .  S
C126        O130   1.261       .  A
C126        C257   1.434       .  S
O131        C134   1.263       .  A
O131       Cd136   2.453       .  S
C132        O141   1.265       .  A
C132        O137   1.264       .  A
C132        C261   1.434       .  S
O133        C139   1.267       .  A
O133       Cd136   2.504       .  S
C134        O142   1.264       .  A
C134        C254   1.435       .  S
C135        O140   1.265       .  A
C135        O138   1.262       .  A
C135        C306   1.433       .  S
Cd136       O143   2.422       .  S
Cd136       O142   2.482       .  S
Cd136       O141   2.473       .  S
Cd136       O137   2.448       .  S
Cd136       O140   2.484       .  S
Cd136       O138   2.439       .  S
C139        O143   1.261       .  A
C139        C256   1.434       .  S
O144        C147   1.263       .  A
O144       Cd149   2.452       .  S
C145        O154   1.265       .  A
C145        O150   1.263       .  A
C145        C270   1.435       .  S
O146        C152   1.267       .  A
O146       Cd149   2.505       .  S
C147        O155   1.264       .  A
C147        C258   1.434       .  S
C148        O153   1.265       .  A
C148        O151   1.262       .  A
C148        C291   1.433       .  S
Cd149       O156   2.424       .  S
Cd149       O155   2.477       .  S
Cd149       O154   2.477       .  S
Cd149       O150   2.448       .  S
Cd149       O153   2.486       .  S
Cd149       O151   2.440       .  S
C152        O156   1.261       .  A
C152        C253   1.435       .  S
O157        C160   1.263       .  A
O157       Cd162   2.455       .  S
C158        O167   1.265       .  A
C158        O163   1.264       .  A
C158        C248   1.434       .  S
O159        C165   1.267       .  A
O159       Cd162   2.504       .  S
C160        O168   1.264       .  A
C160        C250   1.436       .  S
C161        O166   1.265       .  A
C161        O164   1.262       .  A
C161        C280   1.435       .  S
Cd162       O169   2.425       .  S
Cd162       O168   2.483       .  S
Cd162       O167   2.472       .  S
Cd162       O163   2.451       .  S
Cd162       O166   2.489       .  S
Cd162       O164   2.445       .  S
C165        O169   1.261       .  A
C165        C251   1.435       .  S
O170        C173   1.263       .  A
O170       Cd175   2.456       .  S
C171        O180   1.265       .  A
C171        O176   1.264       .  A
C171        C243   1.435       .  S
O172        C178   1.267       .  A
O172       Cd175   2.507       .  S
C173        O181   1.264       .  A
C173        C246   1.436       .  S
C174        O179   1.265       .  A
C174        O177   1.262       .  A
C174        C284   1.435       .  S
Cd175       O182   2.425       .  S
Cd175       O181   2.483       .  S
Cd175       O180   2.475       .  S
Cd175       O176   2.450       .  S
Cd175       O179   2.491       .  S
Cd175       O177   2.444       .  S
C178        O182   1.261       .  A
C178        C249   1.436       .  S
O183        C186   1.263       .  A
O183       Cd188   2.452       .  S
C184        O193   1.265       .  A
C184        O189   1.264       .  A
C184        C242   1.435       .  S
O185        C191   1.267       .  A
O185       Cd188   2.508       .  S
C186        O194   1.264       .  A
C186        C252   1.435       .  S
C187        O192   1.266       .  A
C187        O190   1.261       .  A
C187        C278   1.435       .  S
Cd188       O195   2.424       .  S
Cd188       O194   2.480       .  S
Cd188       O193   2.475       .  S
Cd188       O189   2.447       .  S
Cd188       O192   2.492       .  S
Cd188       O190   2.438       .  S
C191        O195   1.261       .  A
C191        C245   1.436       .  S
O196        C199   1.263       .  A
O196       Cd201   2.451       .  S
C197        O206   1.265       .  A
C197        O202   1.264       .  A
C197        C241   1.435       .  S
O198        C204   1.267       .  A
O198       Cd201   2.506       .  S
C199        O207   1.264       .  A
C199        C237   1.434       .  S
C200        O205   1.265       .  A
C200        O203   1.261       .  A
C200        C260   1.433   1_565  S
Cd201       O208   2.424       .  S
Cd201       O207   2.478       .  S
Cd201       O206   2.475       .  S
Cd201       O202   2.448       .  S
Cd201       O205   2.487       .  S
Cd201       O203   2.438       .  S
C204        O208   1.261       .  A
C204        C239   1.435       .  S
O209        C212   1.263       .  A
O209       Cd214   2.454       .  S
C210        O219   1.265       .  A
C210        O215   1.264       .  A
C210        C247   1.434       .  S
O211        C217   1.267       .  A
O211       Cd214   2.504       .  S
C212        O220   1.264       .  A
C212        C240   1.435       .  S
C213        O218   1.265       .  A
C213        O216   1.262       .  A
C213        C268   1.434       .  S
Cd214       O221   2.425       .  S
Cd214       O220   2.482       .  S
Cd214       O219   2.473       .  S
Cd214       O215   2.451       .  S
Cd214       O218   2.485       .  S
Cd214       O216   2.443       .  S
C217        O221   1.261       .  A
C217        C236   1.435       .  S
O222        C225   1.263       .  A
O222       Cd227   2.455       .  S
C223        O232   1.265       .  A
C223        O228   1.264       .  A
C223        C244   1.435       .  S
O224        C230   1.267       .  A
O224       Cd227   2.501       .  S
C225        O233   1.264       .  A
C225        C235   1.435       .  S
C226        O231   1.265       .  A
C226        O229   1.262       .  A
C226        C276   1.434       .  S
Cd227       O234   2.425       .  S
Cd227       O233   2.481       .  S
Cd227       O232   2.471       .  S
Cd227       O228   2.453       .  S
Cd227       O231   2.484       .  S
Cd227       O229   2.447       .  S
C230        O234   1.261       .  A
C230        C238   1.434       .  S
C235        C236   1.206       .  T
C237        C238   1.205       .  T
C239        C240   1.206       .  T
C241        C242   1.205       .  T
C243        C244   1.206       .  T
C245        C246   1.206       .  T
C247        C248   1.205       .  T
C249        C250   1.206       .  T
C251        C252   1.206       .  T
C253        C254   1.206       .  T
C255        C256   1.205       .  T
C257        C258   1.205       .  T
C259        C260   1.205       .  T
C261        C262   1.205       .  T
C263        C264   1.205       .  T
C265        C266   1.206       .  T
C267        C268   1.205       .  T
C269        C270   1.206       .  T
C271        C272   1.205       .  T
C273        C274   1.206       .  T
C275        C276   1.205       .  T
C277        C278   1.206       .  T
C279        C280   1.206       .  T
C281        C282   1.206   1_455  T
C283        C284   1.206       .  T
C285        C286   1.206       .  T
C287        C288   1.206       .  T
C289        C290   1.206       .  T
C291        C292   1.205       .  T
C293        C294   1.205       .  T
C295        C296   1.205   1_545  T
C297        C298   1.205       .  T
C299        C300   1.205       .  T
C301        C302   1.206       .  T
C303        C304   1.206       .  T
C305        C306   1.204       .  T
