geometry optimzed in LAMMPS
_audit_creation_date              2020-12-01 
_audit_creation_method            'lammps2cif' 
_symmetry_space_group_name_H-M    'P1' 
_symmetry_Int_Tables_number       1 
_symmetry_cell_setting            triclinic 
loop_ 
_symmetry_equiv_pos_as_xyz 
  x,y,z 
_cell_length_a                    28.64030338 
_cell_length_b                    28.610643933859503 
_cell_length_c                    24.137225035193286 
_cell_angle_alpha                 90.04952904165089 
_cell_angle_beta                  90.0599171837218 
_cell_angle_gamma                 89.96987795620781 
loop_ 
_atom_site_label 
_atom_site_type_symbol 
_atom_site_fract_x 
_atom_site_fract_y 
_atom_site_fract_z 
_atom_site_charge 
O1          O  0.46000348  0.80822209  0.19131807    -0.83800
O2          O  0.47989810  0.86385187  0.10152735    -0.80900
C3          C  0.51405074  0.88379420  0.12401483     0.99600
O4          O  0.55208029  0.86178651  0.13079966    -0.80900
O5          O  0.61412085  0.78350298  0.13871562    -0.83500
C6          C  0.61190542  0.76087374  0.18368354     1.04200
O7          O  0.57395619  0.74372320  0.20005284    -0.76300
O8          O  0.47957133  0.73515883  0.20948649    -0.76500
C9          C  0.46694831  0.77552002  0.22548785     1.04100
O10         O  0.42475860  0.73840402  0.11843980    -0.83800
O11         O  0.46090519  0.78805050  0.02887528    -0.80900
C12         C  0.49131696  0.80792516  0.99907892     0.99700
O13         O  0.52607650  0.82835654  0.02082580    -0.80900
O14         O  0.58008169  0.75130614  0.03469266    -0.83500
C15         C  0.58549430  0.70932760  0.04922320     1.04100
O16         O  0.57323868  0.69499082  0.09649481    -0.76300
O17         O  0.47916886  0.68765897  0.10105825    -0.76500
C18         C  0.43700584  0.69937105  0.09974028     1.04100
Cr19       Cr  0.46051063  0.79776864  0.11036230     1.93700
Cr20       Cr  0.56469829  0.80443970  0.08431118     1.93200
Cr21       Cr  0.52556030  0.71955899  0.14926673     1.39100
O22         O  0.51756735  0.77376832  0.11505884    -1.21600
O23         O  0.80699575  0.47439782  0.31949985    -0.83800
O24         O  0.85603001  0.49981678  0.41311322    -0.80900
C25         C  0.87578991  0.53309932  0.38888527     0.99600
O26         O  0.85300426  0.57008234  0.37833530    -0.80900
O27         O  0.77329700  0.62930581  0.36232834    -0.83500
C28         C  0.75185551  0.62521941  0.31675110     1.04200
O29         O  0.73646000  0.58629415  0.30096120    -0.76300
O30         O  0.73477583  0.49127545  0.29378382    -0.76500
C31         C  0.77640721  0.47926899  0.28211915     1.04100
O32         O  0.73506787  0.43814049  0.38777535    -0.83800
O33         O  0.77708114  0.48036396  0.47985262    -0.80900
C34         C  0.79418453  0.51265833  0.50953037     0.99700
O35         O  0.81471773  0.54723532  0.48752732    -0.80900
O36         O  0.73713360  0.59792823  0.46507414    -0.83500
C37         C  0.69537640  0.59985935  0.44852952     1.04100
O38         O  0.68322921  0.58453336  0.40152752    -0.76300
O39         O  0.68106050  0.49038705  0.39865932    -0.76500
C40         C  0.69461441  0.44891721  0.40276111     1.04100
Cr41       Cr  0.79172197  0.47727792  0.39939049     1.93700
Cr42       Cr  0.79307962  0.58252542  0.42023633     1.93200
Cr43       Cr  0.71302386  0.53743071  0.35154626     1.39100
O44         O  0.76569472  0.53309818  0.38985803    -1.21600
O45         O  0.51629430  0.24306209  0.72121451    -0.83800
O46         O  0.59902692  0.26315797  0.66982844    -0.80900
C47         C  0.62256269  0.22689539  0.67989158     0.99600
O48         O  0.61070550  0.18797686  0.65932511    -0.80900
O49         O  0.55441701  0.12102304  0.60142973    -0.83500
C50         C  0.52076736  0.10481356  0.62987894     1.04200
O51         O  0.49049113  0.13143760  0.64977395    -0.76300
O52         O  0.45175425  0.20988711  0.69045691    -0.76500
C53         C  0.47864493  0.22168279  0.73004612     1.04100
O54         O  0.46608014  0.29304673  0.63748110    -0.83800
O55         O  0.54867850  0.29992657  0.57822598    -0.80900
C56         C  0.58544934  0.28803614  0.55320248     0.99700
O57         O  0.60534227  0.24919271  0.56330405    -0.80900
O58         O  0.54796443  0.18807203  0.51321001    -0.83500
C59         C  0.50842387  0.17297015  0.49988529     1.04100
O60         O  0.47817308  0.16253733  0.53613706    -0.76300
O61         O  0.44278431  0.24306370  0.57537387    -0.76500
C62         C  0.43948375  0.28223113  0.59792637     1.04100
Cr63       Cr  0.53190676  0.27057596  0.64924815     1.93700
Cr64       Cr  0.57589445  0.18809248  0.58732233     1.93200
Cr65       Cr  0.47009397  0.18888799  0.61328780     1.39100
O66         O  0.52600751  0.21526546  0.61678222    -1.21600
O67         O  0.73240959  0.46563209  0.78783717    -0.83800
O68         O  0.71148741  0.38140731  0.83566998    -0.80900
C69         C  0.74764645  0.35782425  0.82513124     0.99600
O70         O  0.78650237  0.36930838  0.84593074    -0.80900
O71         O  0.85380475  0.42327866  0.90591189    -0.83500
C72         C  0.87023616  0.45785842  0.87916459     1.04200
O73         O  0.84382493  0.48895941  0.86073356    -0.76300
O74         O  0.76591545  0.52918439  0.82107404    -0.76500
C75         C  0.75396516  0.50341714  0.78043540     1.04100
O76         O  0.68259865  0.51415718  0.87301984    -0.83800
O77         O  0.67476743  0.42962921  0.92907154    -0.80900
C78         C  0.68628834  0.39203503  0.95270681     0.99700
O79         O  0.72511718  0.37224143  0.94215512    -0.80900
O80         O  0.78720431  0.42731093  0.99461073    -0.83500
C81         C  0.80299329  0.46618405  0.00959968     1.04100
O82         O  0.81263470  0.49789277  0.97472594    -0.76300
O83         O  0.73235093  0.53527162  0.93643097    -0.76500
C84         C  0.69371603  0.54017477  0.91307586     1.04100
Cr85       Cr  0.70453574  0.44823316  0.85893339     1.93700
Cr86       Cr  0.78656631  0.40187424  0.91926763     1.93200
Cr87       Cr  0.78644463  0.50852328  0.89778602     1.39100
O88         O  0.75973547  0.45285487  0.89194365    -1.21600
O89         O  0.49841367  0.17306600  0.19230165    -0.83800
O90         O  0.47661978  0.12059395  0.10020664    -0.80900
C91         C  0.44271087  0.10106119  0.12347310     0.99600
O92         O  0.40527786  0.12370081  0.13143589    -0.80900
O93         O  0.34504418  0.20232199  0.14277443    -0.83500
C94         C  0.34788952  0.22454091  0.18796001     1.04200
O95         O  0.38585405  0.24214843  0.20378215    -0.76300
O96         O  0.48046980  0.24598673  0.21395005    -0.76500
C97         C  0.49225819  0.20478055  0.22802364     1.04100
O98         O  0.53558728  0.24365482  0.12227896    -0.83800
O99         O  0.49693450  0.19798527  0.03097964    -0.80900
C100        C  0.46569406  0.17995679  0.00062593     0.99700
O101        O  0.43070261  0.15952437  0.02179243    -0.80900
O102        O  0.37796179  0.23669841  0.03943524    -0.83500
C103        C  0.37473634  0.27882296  0.05437322     1.04100
O104        O  0.38878788  0.29251523  0.10130898    -0.76300
O105        O  0.48285677  0.29625863  0.10636279    -0.76500
C106        C  0.52457015  0.28316991  0.10408803     1.04100
Cr107      Cr  0.49776826  0.18581525  0.11188252     1.93700
Cr108      Cr  0.39325961  0.18224160  0.08690298     1.93200
Cr109      Cr  0.43533300  0.26507367  0.15374926     1.39100
O110        O  0.44138842  0.21126664  0.11798824    -1.21600
O111        O  0.19636738  0.52828220  0.32081804    -0.83800
O112        O  0.11924036  0.48657547  0.35958286    -0.80900
C113        C  0.09304577  0.45602167  0.37941683     0.99600
O114        O  0.10969692  0.42254727  0.40790267    -0.80900
O115        O  0.17815203  0.36870840  0.34915604    -0.83500
C116        C  0.21740815  0.35783162  0.32892653     1.04200
O117        O  0.25308747  0.38203878  0.33973567    -0.76300
O118        O  0.23154492  0.46487249  0.28974221    -0.76500
C119        C  0.20939897  0.50210609  0.28106098     1.04100
O120        O  0.22819624  0.53691521  0.43659946    -0.83800
O121        O  0.14861519  0.49843119  0.47435714    -0.80900
C122        C  0.15970156  0.46795725  0.51023557     0.99700
O123        O  0.17634095  0.42915319  0.49637889    -0.80900
O124        O  0.23889545  0.37402255  0.44556451    -0.83500
C125        C  0.27698863  0.39490467  0.45660878     1.04100
O126        O  0.28794577  0.43243491  0.43265097    -0.76300
O127        O  0.27925125  0.51560120  0.37480780    -0.76500
C128        C  0.26721994  0.54177801  0.41429996     1.04100
Cr129      Cr  0.17531875  0.50838869  0.39751765     1.93700
Cr130      Cr  0.17721651  0.40234180  0.42181509     1.93200
Cr131      Cr  0.25879086  0.44920011  0.36164236     1.39100
O132        O  0.20324903  0.45328380  0.39353966    -1.21600
O133        O  0.23281983  0.48869773  0.79503361    -0.83800
O134        O  0.23118660  0.58355029  0.80467432    -0.80900
C135        C  0.21562354  0.62221863  0.82116558     0.99600
O136        O  0.19373966  0.62554041  0.86650814    -0.80900
O137        O  0.11347232  0.56646793  0.87982832    -0.83500
C138        C  0.09031042  0.52949627  0.88918450     1.04200
O139        O  0.10987654  0.49526608  0.91192515    -0.76300
O140        O  0.16018483  0.47191813  0.81878313    -0.76500
C141        C  0.19117747  0.47760759  0.78214768     1.04100
O142        O  0.28516416  0.48575540  0.90118574    -0.83800
O143        O  0.28313581  0.57982814  0.90603653    -0.80900
C144        C  0.27054313  0.59421385  0.95323328     0.99700
O145        O  0.22866029  0.59191244  0.96910059    -0.80900
O146        O  0.15062142  0.54109416  0.98840120    -0.83500
C147        C  0.17107897  0.50623128  0.00985830     1.04100
O148        O  0.18823442  0.47429504  0.97971664    -0.76300
O149        O  0.23129769  0.43393855  0.88733737    -0.76500
C150        C  0.27140752  0.44428903  0.90403595     1.04100
Cr151      Cr  0.25392236  0.53369603  0.85442839     1.93700
Cr152      Cr  0.17315869  0.57771793  0.92280317     1.93200
Cr153      Cr  0.17447801  0.47291829  0.89893558     1.39100
O154        O  0.20072001  0.52882830  0.89149977    -1.21600
O155        O  0.48656445  0.73665609  0.70978614    -0.83800
O156        O  0.39182889  0.74177503  0.70233382    -0.80900
C157        C  0.35368083  0.75974973  0.68772977     0.99600
O158        O  0.35048939  0.78354240  0.64364807    -0.80900
O159        O  0.41148581  0.86223055  0.63150059    -0.83500
C160        C  0.44887444  0.88461977  0.62233462     1.04200
O161        O  0.48270315  0.86440168  0.59967330    -0.76300
O162        O  0.50373372  0.81020480  0.69088730    -0.76500
C163        C  0.49755356  0.77762090  0.72544793     1.04100
O164        O  0.48662190  0.68877304  0.60097895    -0.83800
O165        O  0.39241371  0.69350835  0.59885406    -0.80900
C166        C  0.37748372  0.70823729  0.55285578     0.99700
O167        O  0.38113858  0.75045742  0.53874370    -0.80900
O168        O  0.43502898  0.82662936  0.52134151    -0.83500
C169        C  0.46989458  0.80642936  0.49939454     1.04100
O170        O  0.50130793  0.78773685  0.52896502    -0.76300
O171        O  0.53993051  0.74022503  0.61903088    -0.76500
C172        C  0.52848672  0.70137996  0.59922243     1.04100
Cr173      Cr  0.44019291  0.71936610  0.65048362     1.93700
Cr174      Cr  0.39807059  0.80395650  0.58684169     1.93200
Cr175      Cr  0.50282158  0.79870602  0.61013450     1.39100
O176        O  0.44623380  0.77384710  0.61625983    -1.21600
C177        C  0.31222049  0.74752933  0.71875198    -0.17000
C178        C  0.28067569  0.72714197  0.74200898     0.07100
C179        C  0.24905740  0.69548347  0.76785003     0.08900
C180        C  0.22850788  0.66384917  0.79077023    -0.17800
C181        C  0.35605415  0.67558515  0.51573553    -0.17000
C182        C  0.33898477  0.64601804  0.48656046     0.07100
C183        C  0.31801641  0.60974307  0.45586873     0.08900
C184        C  0.29718387  0.57826638  0.43384491    -0.17800
C185        C  0.17866540  0.47339642  0.72457525    -0.17000
C186        C  0.16833725  0.47464983  0.67602688     0.07100
C187        C  0.15870916  0.47745186  0.61852153     0.08900
C188        C  0.15512353  0.47683627  0.56863270    -0.17800
C189        C  0.19842763  0.51337997  0.22465108    -0.17000
C190        C  0.18996604  0.51369749  0.17569988     0.07100
C191        C  0.18145151  0.50854243  0.11834366     0.08900
C192        C  0.17563179  0.50465320  0.06904967    -0.17800
C193        C  0.30010691  0.40870378  0.92857645    -0.17000
C194        C  0.31972635  0.37800208  0.95372601     0.07100
C195        C  0.33921930  0.34221050  0.98681035     0.08900
C196        C  0.35491316  0.31250653  0.01701983    -0.17800
C197        C  0.30621772  0.23499611  0.21929353    -0.17000
C198        C  0.27427554  0.25378159  0.24354936     0.07100
C199        C  0.24294648  0.28438625  0.27135918     0.08900
C200        C  0.22445407  0.31605776  0.29645361    -0.17800
C201        C  0.91990591  0.46618756  0.87375434    -0.17000
C202        C  0.95858713  0.48353181  0.87135338     0.07100
C203        C  0.00236620  0.50742999  0.87172688     0.08900
C204        C  0.04128611  0.52390403  0.87626983    -0.17800
C205        C  0.65374649  0.37048326  0.99017602    -0.17000
C206        C  0.62479785  0.35321425  0.02020577     0.07100
C207        C  0.58977595  0.33224277  0.05322593     0.08900
C208        C  0.55967070  0.31198036  0.07867485    -0.17800
C209        C  0.51248352  0.05516533  0.63565168    -0.17000
C210        C  0.49537744  0.01641134  0.63862349     0.07100
C211        C  0.47169537  0.97254467  0.63901701     0.08900
C212        C  0.45516957  0.93360651  0.63501614    -0.17800
C213        C  0.30949649  0.37452977  0.49469424    -0.17000
C214        C  0.33865090  0.35760647  0.52453052     0.07100
C215        C  0.37403520  0.33591334  0.55592581     0.08900
C216        C  0.40444112  0.31387106  0.57837356    -0.17800
C217        C  0.74181391  0.31592346  0.79239228    -0.17000
C218        C  0.72519441  0.28340815  0.76688967     0.07100
C219        C  0.69583746  0.25153535  0.73796847     0.08900
C220        C  0.66450684  0.23299112  0.71230891    -0.17800
C221        C  0.49707018  0.19355594  0.28585176    -0.17000
C222        C  0.49696621  0.18360027  0.33449182     0.07100
C223        C  0.49600589  0.17375719  0.39197381     0.08900
C224        C  0.49823981  0.16955788  0.44169932    -0.17800
C225        C  0.46737019  0.21007151  0.78629066    -0.17000
C226        C  0.46519527  0.20027343  0.83481406     0.07100
C227        C  0.46708938  0.19014648  0.89206583     0.08900
C228        C  0.46849924  0.18371926  0.94142498    -0.17800
C229        C  0.92442587  0.52625155  0.37539861    -0.17000
C230        C  0.96260930  0.50822557  0.37091035     0.07100
C231        C  0.00530539  0.48256270  0.37105182     0.08900
C232        C  0.04346995  0.46424433  0.37391657    -0.17800
C233        C  0.60610646  0.32018494  0.51474622    -0.17000
C234        C  0.62312603  0.34884568  0.48423918     0.07100
C235        C  0.64431387  0.38368825  0.45135015     0.08900
C236        C  0.66510276  0.41379644  0.42665078    -0.17800
C237        C  0.76547419  0.51594416  0.72447309    -0.17000
C238        C  0.77454943  0.51782234  0.67569363     0.07100
C239        C  0.78365762  0.51449154  0.61821362     0.08900
C240        C  0.78969586  0.51148739  0.56883095    -0.17800
C241        C  0.78919325  0.47291327  0.22492036    -0.17000
C242        C  0.79866788  0.47263048  0.17612496     0.07100
C243        C  0.80648449  0.47437360  0.11819079     0.08900
C244        C  0.80849768  0.47378729  0.06817693    -0.17800
C245        C  0.66033753  0.61954609  0.48420090    -0.17000
C246        C  0.62993644  0.63490796  0.51365713     0.07100
C247        C  0.59383859  0.65385192  0.54673004     0.08900
C248        C  0.56331453  0.67299110  0.57268853    -0.17800
C249        C  0.50734651  0.93214534  0.13926529    -0.17000
C250        C  0.49025052  0.97064811  0.14504458     0.07100
C251        C  0.46599937  0.01414868  0.14481361     0.08900
C252        C  0.44908022  0.05268807  0.13872312    -0.17800
C253        C  0.30519846  0.61351433  0.98968269    -0.17000
C254        C  0.33561620  0.62913558  0.01890862     0.07100
C255        C  0.37190447  0.64905527  0.05079700     0.08900
C256        C  0.40249436  0.66944083  0.07522178    -0.17800
C257        C  0.60592767  0.67646844  0.01141918    -0.17000
C258        C  0.62226190  0.64620184  0.98255816     0.07100
C259        C  0.64269243  0.60893305  0.95284013     0.08900
C260        C  0.66340084  0.57684074  0.93176227    -0.17800
C261        C  0.73906518  0.66634874  0.28535757    -0.17000
C262        C  0.71829055  0.69765042  0.26203217     0.07100
C263        C  0.68615870  0.72887425  0.23627675     0.08900
C264        C  0.65406044  0.74888331  0.21355628    -0.17800
C265        C  0.48814652  0.80629231  0.93976145    -0.17000
C266        C  0.49120069  0.80221512  0.89015311     0.07100
C267        C  0.49730650  0.79498417  0.83268882     0.08900
C268        C  0.50057541  0.78738523  0.78367926    -0.17800
C269        C  0.47235733  0.80396740  0.44007633    -0.17000
C270        C  0.46961936  0.79932867  0.39050647     0.07100
C271        C  0.46466586  0.79186251  0.33292395     0.08900
C272        C  0.46265813  0.78450630  0.28376758    -0.17800
loop_ 
_geom_bond_atom_site_label_1 
_geom_bond_atom_site_label_2 
_geom_bond_distance 
_geom_bond_site_symmetry_2 
_ccdc_geom_bond_type 
O1          Cr19   1.977       .  S
O1            C9   1.263       .  A
O2          Cr19   1.983       .  S
O2            C3   1.255       .  A
C3            O4   1.268       .  A
C3          C249   1.444       .  S
O4          Cr20   2.020       .  S
O5          Cr20   2.021       .  S
O5            C6   1.266       .  A
C6            O7   1.257       .  A
C6          C264   1.447       .  S
O7          Cr21   1.974       .  S
O8          Cr21   2.012       .  S
O8            C9   1.270       .  A
C9          C272   1.435       .  S
O10         Cr19   1.994       .  S
O10          C18   1.254       .  A
O11         Cr19   1.986       .  S
O11          C12   1.266   1_554  A
C12          O13   1.268   1_556  A
C12         C265   1.435       .  S
O13         Cr20   2.009       .  S
O14         Cr20   1.984       .  S
O14          C15   1.261       .  A
C15          O16   1.263       .  A
C15         C257   1.435       .  S
O16         Cr21   1.996       .  S
O17         Cr21   1.987       .  S
O17          C18   1.253       .  A
C18         C256   1.435       .  S
Cr19         O22   1.776       .  S
Cr20         O22   1.774       .  S
Cr21         O22   1.772       .  S
O23         Cr41   1.979       .  S
O23          C31   1.265       .  A
O24         Cr41   1.979       .  S
O24          C25   1.253       .  A
C25          O26   1.269       .  A
C25         C229   1.444       .  S
O26         Cr42   2.024       .  S
O27         Cr42   2.017       .  S
O27          C28   1.265       .  A
C28          O29   1.257       .  A
C28         C261   1.447       .  S
O29         Cr43   1.975       .  S
O30         Cr43   2.018       .  S
O30          C31   1.272       .  A
C31         C241   1.440       .  S
O32         Cr41   1.991       .  S
O32          C40   1.252       .  A
O33         Cr41   1.989       .  S
O33          C34   1.267       .  A
C34          O35   1.268       .  A
C34         C240   1.438       .  S
O35         Cr42   2.010       .  S
O36         Cr42   1.984       .  S
O36          C37   1.262       .  A
C37          O38   1.264       .  A
C37         C245   1.437       .  S
O38         Cr43   1.999       .  S
O39         Cr43   1.987       .  S
O39          C40   1.252       .  A
C40         C236   1.435       .  S
Cr41         O44   1.777       .  S
Cr42         O44   1.775       .  S
Cr43         O44   1.773       .  S
O45         Cr63   1.960       .  S
O45          C53   1.258       .  A
O46         Cr63   1.996       .  S
O46          C47   1.261       .  A
C47          O48   1.265       .  A
C47         C220   1.444       .  S
O48         Cr64   2.003       .  S
O49         Cr64   2.044       .  S
O49          C50   1.272       .  A
C50          O51   1.250       .  A
C50         C209   1.447       .  S
O51         Cr65   1.954       .  S
O52         Cr65   2.026       .  S
O52          C53   1.272       .  A
C53         C225   1.435       .  S
O54         Cr63   2.012       .  S
O54          C62   1.259       .  A
O55         Cr63   1.970       .  S
O55          C56   1.261       .  A
C56          O57   1.272       .  A
C56         C233   1.436       .  S
O57         Cr64   2.027       .  S
O58         Cr64   1.959       .  S
O58          C59   1.254       .  A
C59          O60   1.268       .  A
C59         C224   1.437       .  S
O60         Cr65   2.022       .  S
O61         Cr65   1.963       .  S
O61          C62   1.249       .  A
C62         C216   1.431       .  S
Cr63         O66   1.773       .  S
Cr64         O66   1.775       .  S
Cr65         O66   1.773       .  S
O67         Cr85   1.958       .  S
O67          C75   1.258       .  A
O68         Cr85   2.002       .  S
O68          C69   1.262       .  A
C69          O70   1.264       .  A
C69         C217   1.445       .  S
O70         Cr86   2.000       .  S
O71         Cr86   2.047       .  S
O71          C72   1.273       .  A
C72          O73   1.249       .  A
C72         C201   1.449       .  S
O73         Cr87   1.953       .  S
O74         Cr87   2.030       .  S
O74          C75   1.273       .  A
C75         C237   1.437       .  S
O76         Cr85   2.016       .  S
O76          C84   1.260       .  A
O77         Cr85   1.970       .  S
O77          C78   1.262       .  A
C78          O79   1.274       .  A
C78         C205   1.439       .  S
O79         Cr86   2.031       .  S
O80         Cr86   1.958       .  S
O80          C81   1.254   1_556  A
C81          O82   1.269   1_554  A
C81         C244   1.439       .  S
O82         Cr87   2.025       .  S
O83         Cr87   1.964       .  S
O83          C84   1.249       .  A
C84         C260   1.434       .  S
Cr85         O88   1.775       .  S
Cr86         O88   1.775       .  S
Cr87         O88   1.773       .  S
O89        Cr107   1.975       .  S
O89          C97   1.264       .  A
O90        Cr107   1.982       .  S
O90          C91   1.254       .  A
C91          O92   1.267       .  A
C91         C252   1.444       .  S
O92        Cr108   2.020       .  S
O93        Cr108   2.014       .  S
O93          C94   1.264       .  A
C94          O95   1.257       .  A
C94         C197   1.445       .  S
O95        Cr109   1.976       .  S
O96        Cr109   2.019       .  S
O96          C97   1.273       .  A
C97         C221   1.439       .  S
O98        Cr107   1.994       .  S
O98         C106   1.253       .  A
O99        Cr107   1.984       .  S
O99         C100   1.266       .  A
C100        O101   1.269       .  A
C100        C228   1.435   1_554  S
O101       Cr108   2.011       .  S
O102       Cr108   1.983       .  S
O102        C103   1.261       .  A
C103        O104   1.264       .  A
C103        C196   1.437       .  S
O104       Cr109   1.998       .  S
O105       Cr109   1.991       .  S
O105        C106   1.253       .  A
C106        C208   1.439       .  S
Cr107       O110   1.777       .  S
Cr108       O110   1.775       .  S
Cr109       O110   1.773       .  S
O111       Cr129   2.030       .  S
O111        C119   1.273       .  A
O112       Cr129   1.950       .  S
O112        C113   1.248       .  A
C113        O114   1.272       .  A
C113        C232   1.445       .  S
O114       Cr130   2.046       .  S
O115       Cr130   2.000       .  S
O115        C116   1.265       .  A
C116        O117   1.262       .  A
C116        C200   1.443       .  S
O117       Cr131   1.999       .  S
O118       Cr131   1.954       .  S
O118        C119   1.257       .  A
C119        C189   1.434       .  S
O120       Cr129   1.961       .  S
O120        C128   1.249       .  A
O121       Cr129   2.027       .  S
O121        C122   1.269       .  A
C122        O123   1.253       .  A
C122        C188   1.438       .  S
O123       Cr130   1.956       .  S
O124       Cr130   2.026       .  S
O124        C125   1.272       .  A
C125        O126   1.260       .  A
C125        C213   1.432       .  S
O126       Cr131   1.965       .  S
O127       Cr131   2.013       .  S
O127        C128   1.260       .  A
C128        C184   1.431       .  S
Cr129       O132   1.770       .  S
Cr130       O132   1.775       .  S
Cr131       O132   1.772       .  S
O133       Cr151   2.018       .  S
O133        C141   1.273       .  A
O134       Cr151   1.975       .  S
O134        C135   1.257       .  A
C135        O136   1.265       .  A
C135        C180   1.448       .  S
O136       Cr152   2.018       .  S
O137       Cr152   2.024       .  S
O137        C138   1.269       .  A
C138        O139   1.255       .  A
C138        C204   1.447       .  S
O139       Cr153   1.982       .  S
O140       Cr153   1.977       .  S
O140        C141   1.264       .  A
C141        C185   1.440       .  S
O142       Cr151   1.989       .  S
O142        C150   1.252       .  A
O143       Cr151   1.997       .  S
O143        C144   1.264       .  A
C144        O145   1.261       .  A
C144        C253   1.436       .  S
O145       Cr152   1.984       .  S
O146       Cr152   2.007       .  S
O146        C147   1.267   1_556  A
C147        O148   1.267   1_554  A
C147        C192   1.435       .  S
O148       Cr153   1.989       .  S
O149       Cr153   1.992       .  S
O149        C150   1.253       .  A
C150        C193   1.436       .  S
Cr151       O154   1.773       .  S
Cr152       O154   1.774       .  S
Cr153       O154   1.777       .  S
O155       Cr173   2.013       .  S
O155        C163   1.271       .  A
O156       Cr173   1.974       .  S
O156        C157   1.258       .  A
C157        O158   1.267       .  A
C157        C177   1.448       .  S
O158       Cr174   2.021       .  S
O159       Cr174   2.021       .  S
O159        C160   1.268       .  A
C160        O161   1.254       .  A
C160        C212   1.446       .  S
O161       Cr175   1.982       .  S
O162       Cr175   1.977       .  S
O162        C163   1.264       .  A
C163        C268   1.435       .  S
O164       Cr173   1.991       .  S
O164        C172   1.253       .  A
O165       Cr173   1.992       .  S
O165        C166   1.262       .  A
C166        O167   1.260       .  A
C166        C181   1.432       .  S
O167       Cr174   1.980       .  S
O168       Cr174   2.012       .  S
O168        C169   1.270       .  A
C169        O170   1.266       .  A
C169        C269   1.435       .  S
O170       Cr175   1.984       .  S
O171       Cr175   1.993       .  S
O171        C172   1.253       .  A
C172        C248   1.437       .  S
Cr173       O176   1.773       .  S
Cr174       O176   1.774       .  S
Cr175       O176   1.777       .  S
C177        C178   1.214       .  T
C178        C179   1.426       .  S
C179        C180   1.214       .  T
C181        C182   1.204       .  T
C182        C183   1.409       .  S
C183        C184   1.204       .  T
C185        C186   1.209       .  T
C186        C187   1.417       .  S
C187        C188   1.209       .  T
C189        C190   1.206       .  T
C190        C191   1.413       .  S
C191        C192   1.206       .  T
C193        C194   1.206       .  T
C194        C195   1.413       .  S
C195        C196   1.207   1_556  T
C197        C198   1.212       .  T
C198        C199   1.422       .  S
C199        C200   1.211       .  T
C201        C202   1.216       .  T
C202        C203   1.428   1_655  S
C203        C204   1.215       .  T
C205        C206   1.208   1_556  T
C206        C207   1.416       .  S
C207        C208   1.208       .  T
C209        C210   1.215       .  T
C210        C211   1.427   1_545  S
C211        C212   1.214       .  T
C213        C214   1.204       .  T
C214        C215   1.409       .  S
C215        C216   1.204       .  T
C217        C218   1.212       .  T
C218        C219   1.423       .  S
C219        C220   1.212       .  T
C221        C222   1.208       .  T
C222        C223   1.416       .  S
C223        C224   1.208       .  T
C225        C226   1.206       .  T
C226        C227   1.413       .  S
C227        C228   1.206       .  T
C229        C230   1.214       .  T
C230        C231   1.426   1_655  S
C231        C232   1.214       .  T
C233        C234   1.206       .  T
C234        C235   1.413       .  S
C235        C236   1.206       .  T
C237        C238   1.207       .  T
C238        C239   1.415       .  S
C239        C240   1.208       .  T
C241        C242   1.209       .  T
C242        C243   1.417       .  S
C243        C244   1.209       .  T
C245        C246   1.207       .  T
C246        C247   1.414       .  S
C247        C248   1.207       .  T
C249        C250   1.213       .  T
C250        C251   1.425   1_565  S
C251        C252   1.213       .  T
C253        C254   1.206   1_556  T
C254        C255   1.413       .  S
C255        C256   1.206       .  T
C257        C258   1.205   1_554  T
C258        C259   1.412       .  S
C259        C260   1.205       .  T
C261        C262   1.214       .  T
C262        C263   1.425       .  S
C263        C264   1.213       .  T
C265        C266   1.206       .  T
C266        C267   1.413       .  S
C267        C268   1.206       .  T
C269        C270   1.206       .  T
C270        C271   1.413       .  S
C271        C272   1.206       .  T
