geometry optimzed in LAMMPS
_audit_creation_date              2020-12-01 
_audit_creation_method            'lammps2cif' 
_symmetry_space_group_name_H-M    'P1' 
_symmetry_Int_Tables_number       1 
_symmetry_cell_setting            triclinic 
loop_ 
_symmetry_equiv_pos_as_xyz 
  x,y,z 
_cell_length_a                    23.88503271 
_cell_length_b                    35.156405651047194 
_cell_length_c                    33.49695764243501 
_cell_angle_alpha                 89.99982923113149 
_cell_angle_beta                  89.99933058767576 
_cell_angle_gamma                 90.00044222978667 
loop_ 
_atom_site_label 
_atom_site_type_symbol 
_atom_site_fract_x 
_atom_site_fract_y 
_atom_site_fract_z 
_atom_site_charge 
In1        In  0.68176686  0.79838602  0.24499111     1.37100
C2          C  0.73296802  0.86529842  0.24843615     0.80800
O3          O  0.67516262  0.79581807  0.31197666    -0.57700
O4          O  0.73454655  0.75999726  0.28352097    -0.48600
C5          C  0.57096176  0.79075427  0.24203319     0.73500
O6          O  0.59512095  0.82242643  0.23928244    -0.43400
C7          C  0.71126518  0.77067561  0.17395565     0.78200
O8          O  0.68046141  0.86216122  0.24867751    -0.55300
O9          O  0.71214428  0.75082381  0.20522751    -0.45400
O10         O  0.75948635  0.83437274  0.24669550    -0.51700
C11         C  0.71294058  0.77113212  0.31575166     0.88300
O12         O  0.60315175  0.76267368  0.24622458    -0.53600
O13         O  0.69508476  0.80438484  0.17878307    -0.56900
In14       In  0.79294516  0.70313537  0.99476251     1.36900
C15         C  0.73852061  0.63623578  0.49975734     0.80800
O16         O  0.79926408  0.70660697  0.06164064    -0.57700
O17         O  0.73795952  0.74062149  0.03279973    -0.48600
C18         C  0.90383373  0.70941362  0.99116944     0.73500
O19         O  0.87693667  0.67767527  0.48845115    -0.43400
C20         C  0.76158603  0.73044249  0.42443401     0.78200
O21         O  0.79418826  0.63982282  0.00326468    -0.55300
O22         O  0.76083644  0.75022207  0.45575242    -0.45400
O23         O  0.71254981  0.66723474  0.49624771    -0.51700
C24         C  0.76016269  0.73034633  0.06515832     0.88300
O25         O  0.87273102  0.73713277  0.99979201    -0.53600
O26         O  0.77780310  0.69671270  0.42912204    -0.56900
C27         C  0.81492252  0.96689157  0.25118209     0.83400
N28         N  0.87170961  0.96649520  0.25163291    -0.74900
C29         C  0.90061580  0.99968533  0.25234723     0.85900
N30         N  0.87279709  0.03329651  0.25263506    -0.74800
C31         C  0.81602799  0.03375412  0.25216755     0.86000
N32         N  0.78700887  0.00054155  0.25145184    -0.76500
C33         C  0.66081069  0.53460305  0.00427876     0.83400
N34         N  0.60402459  0.53459657  0.00500107    -0.74900
C35         C  0.57565441  0.50118969  0.00543447     0.85900
N36         N  0.60401280  0.46778710  0.00509424    -0.74800
C37         C  0.66078007  0.46775431  0.00435232     0.86000
N38         N  0.68925524  0.50117075  0.00393957    -0.76500
In39       In  0.79212163  0.29874113  0.00976973     1.36900
C40         C  0.74131552  0.36574234  0.00594921     0.80800
O41         O  0.79702997  0.29802635  0.44228535    -0.57700
O42         O  0.74036978  0.26023398  0.47072775    -0.48600
C43         C  0.90284269  0.29176928  0.01500047     0.73500
O44         O  0.87805955  0.32318638  0.01823257    -0.43400
C45         C  0.76235966  0.27049437  0.08034051     0.78200
O46         O  0.79321767  0.36202477  0.00081137    -0.55300
O47         O  0.76034408  0.25112040  0.04873552    -0.45400
O48         O  0.71512717  0.33533973  0.01270027    -0.51700
C49         C  0.76062520  0.27241876  0.43848355     0.88300
O50         O  0.87127718  0.26356728  0.00935140    -0.53600
O51         O  0.77994952  0.30397121  0.07606558    -0.56900
In52       In  0.68294846  0.20213533  0.25964609     1.36900
C53         C  0.73547809  0.13577996  0.25559428     0.80800
O54         O  0.67823629  0.20349995  0.19258285    -0.57700
O55         O  0.73344209  0.24209959  0.22128846    -0.48600
C56         C  0.57187016  0.20798090  0.26380118     0.73500
O57         O  0.59749696  0.17725930  0.26971332    -0.43400
C58         C  0.71248397  0.23100619  0.33003838     0.78200
O59         O  0.68338741  0.13889335  0.25103502    -0.55300
O60         O  0.71407592  0.25019400  0.29831811    -0.45400
O61         O  0.76107158  0.16649983  0.26203910    -0.51700
C62         C  0.71388622  0.22960660  0.18894319     0.88300
O63         O  0.60272679  0.23605693  0.25604026    -0.53600
O64         O  0.69548394  0.19737028  0.32598265    -0.56900
In65       In  0.28961426  0.79666424  0.24192655     1.36900
C66         C  0.23694587  0.86301933  0.24515767     0.80800
O67         O  0.28056534  0.80170050  0.17535535    -0.57700
O68         O  0.25853630  0.74924243  0.20252107    -0.48600
C69         C  0.40057590  0.78991511  0.24022707     0.73500
O70         O  0.37585549  0.82114069  0.23529052    -0.43400
C71         C  0.25735643  0.76888808  0.31212811     0.78200
O72         O  0.28921668  0.86013876  0.24873315    -0.55300
O73         O  0.23755384  0.75707108  0.27958239    -0.45400
O74         O  0.21131166  0.83210565  0.24001341    -0.51700
C75         C  0.26237573  0.76840472  0.17089396     0.88300
O76         O  0.36885672  0.76178212  0.24567441    -0.53600
O77         O  0.29374638  0.79458091  0.30894125    -0.56900
In78       In  0.18487146  0.70004139  0.99145358     1.36900
C79         C  0.23640574  0.63333292  0.99569298     0.80800
O80         O  0.18774420  0.69559839  0.42529708    -0.57700
O81         O  0.21844926  0.74589322  0.45262475    -0.48600
C82         C  0.07419031  0.70838508  0.98948317     0.73500
O83         O  0.09801563  0.67689329  0.98420264    -0.43400
C84         C  0.21580476  0.72731462  0.06208039     0.78200
O85         O  0.18397145  0.63641833  0.99738651    -0.55300
O86         O  0.23587805  0.73957153  0.02979000    -0.45400
O87         O  0.26264207  0.66415416  0.99171604    -0.51700
C88         C  0.21017748  0.72768098  0.42082320     0.88300
O89         O  0.10668925  0.73603737  0.99533162    -0.53600
O90         O  0.17973205  0.70146527  0.05841833    -0.56900
C91         C  0.31938024  0.53249195  0.00332223     0.83400
N92         N  0.29173725  0.49884562  0.00573961    -0.74900
C93         C  0.32097524  0.46584421  0.00846760     0.85900
N94         N  0.37775305  0.46649454  0.00873053    -0.74800
C95         C  0.40532127  0.50013699  0.00630665     0.86000
N96         N  0.37615818  0.53312632  0.00357859    -0.76500
In97       In  0.18436506  0.29877943  0.01556810     1.36900
C98         C  0.23646706  0.36362842  0.50941876     0.80800
O99         O  0.19053943  0.30276447  0.08240880    -0.57700
O100        O  0.21856607  0.25202877  0.05434844    -0.48600
C101        C  0.07330754  0.29191009  0.01768842     0.73500
O102        O  0.09716041  0.32086774  0.52115785    -0.43400
C103        C  0.21645513  0.26941387  0.44389185     0.78200
O104        O  0.18678457  0.36209071  0.00739946    -0.55300
O105        O  0.23420319  0.25638017  0.47655381    -0.45400
O106        O  0.26194292  0.33296430  0.51633789    -0.51700
C107        C  0.21173051  0.27021054  0.08636088     0.88300
O108        O  0.10511899  0.26386556  0.01209337    -0.53600
O109        O  0.18202839  0.29632821  0.44689069    -0.56900
In110      In  0.29047125  0.19935596  0.26447187     1.36900
C111        C  0.23856877  0.13265438  0.26140850     0.80800
O112        O  0.28495939  0.19553594  0.33128173    -0.57700
O113        O  0.25583268  0.24601541  0.30339034    -0.48600
C114        C  0.40135274  0.20685129  0.26615767     0.73500
O115        O  0.37697757  0.17583485  0.27306115    -0.43400
C116        C  0.25844181  0.22746141  0.19443427     0.78200
O117        O  0.29050965  0.13596921  0.25629870    -0.55300
O118        O  0.23865854  0.23918852  0.22702465    -0.45400
O119        O  0.21285223  0.16330395  0.26778265    -0.51700
C120        C  0.26328163  0.22789090  0.33536406     0.88300
O121        O  0.36930769  0.23442528  0.25881582    -0.53600
O122        O  0.29453867  0.20154813  0.19747342    -0.56900
C123        C  0.15563055  0.96463799  0.25111752     0.83400
N124        N  0.09884922  0.96502685  0.25090227    -0.74900
C125        C  0.07093786  0.99851966  0.25349090     0.85900
N126        N  0.09975606  0.03164055  0.25624947    -0.74800
C127        C  0.15653393  0.03129063  0.25644841     0.86000
N128        N  0.18454459  0.99778095  0.25387597    -0.76500
C129        C  0.21073227  0.09656644  0.26009305    -0.10100
C130        C  0.18670942  0.06647022  0.25873074    -0.11600
C131        C  0.23399316  0.25477112  0.40592135    -0.10100
C132        C  0.24776879  0.24276057  0.37368134    -0.11600
C133        C  0.22738235  0.25508129  0.12455095    -0.10100
C134        C  0.24123228  0.24252699  0.15655394    -0.11600
C135        C  0.29196719  0.43021260  0.01061121    -0.10100
C136        C  0.26781458  0.40016845  0.01199019    -0.11600
C137        C  0.26431544  0.59733552  0.99821065    -0.10100
C138        C  0.28876644  0.56745328  0.00048707    -0.11600
C139        C  0.18490548  0.92911603  0.24862220    -0.10100
C140        C  0.20871066  0.89895468  0.24687475    -0.11600
C141        C  0.24667256  0.75360363  0.13257065    -0.10100
C142        C  0.23282112  0.74164861  0.10031532    -0.11600
C143        C  0.22574637  0.74221299  0.38233060    -0.10100
C144        C  0.23977563  0.75424953  0.35013170    -0.11600
C145        C  0.51184416  0.21040615  0.26533926    -0.10100
C146        C  0.46132952  0.21008673  0.26607077    -0.11600
C147        C  0.96278486  0.28876152  0.01703174    -0.10100
C148        C  0.01330130  0.28886092  0.01785158    -0.11600
C149        C  0.73112245  0.24387997  0.15068576    -0.10100
C150        C  0.74552045  0.25572377  0.11847877    -0.11600
C151        C  0.74344551  0.25821876  0.40018778    -0.10100
C152        C  0.72914931  0.24615182  0.36805116    -0.11600
C153        C  0.51568722  0.50113971  0.00603095    -0.10100
C154        C  0.46528716  0.50079491  0.00630143    -0.11600
C155        C  0.71405022  0.40203251  0.00462890    -0.10100
C156        C  0.69045300  0.43231000  0.00422232    -0.11600
C157        C  0.96057844  0.99925391  0.25282587    -0.10100
C158        C  0.01097504  0.99892317  0.25317020    -0.11600
C159        C  0.78692805  0.06942693  0.25283579    -0.10100
C160        C  0.76347294  0.09975083  0.25384992    -0.11600
C161        C  0.01430048  0.71199963  0.98941139    -0.10100
C162        C  0.96380338  0.71217843  0.98994158    -0.11600
C163        C  0.69056022  0.57001690  0.00334409    -0.10100
C164        C  0.71440566  0.60018423  0.00196258    -0.11600
C165        C  0.51106374  0.78729505  0.24078352    -0.10100
C166        C  0.46056315  0.78703690  0.24019248    -0.11600
C167        C  0.78464035  0.93164560  0.25046750    -0.10100
C168        C  0.76060758  0.90150466  0.24973208    -0.11600
C169        C  0.73028113  0.75691530  0.35402327    -0.10100
C170        C  0.74478683  0.74507435  0.38621490    -0.11600
C171        C  0.74224445  0.74449314  0.10333392    -0.10100
C172        C  0.72781701  0.75616496  0.13561859    -0.11600
In173      In  0.68270346  0.80016358  0.74516249     1.37100
C174        C  0.73330213  0.86722870  0.74819022     0.80800
O175        O  0.68002167  0.79962646  0.81233153    -0.57700
O176        O  0.73392428  0.76042301  0.78326379    -0.48600
C177        C  0.57203589  0.79132139  0.74206992     0.73500
O178        O  0.59581321  0.82261109  0.73552153    -0.43400
C179        C  0.71252681  0.77199244  0.67452132     0.78200
O180        O  0.68167083  0.86342351  0.75450625    -0.55300
O181        O  0.71959528  0.75397185  0.70662319    -0.45400
O182        O  0.75923725  0.83692409  0.74058412    -0.51700
C183        C  0.71551378  0.77338254  0.81575173     0.88300
O184        O  0.60456438  0.76414218  0.74991934    -0.53600
O185        O  0.68986715  0.80409333  0.67833012    -0.56900
In186      In  0.79093340  0.70255480  0.49538237     1.36900
C187        C  0.74195909  0.63633819  0.99963780     0.80800
O188        O  0.79702003  0.70504767  0.56236473    -0.57700
O189        O  0.73938502  0.74196936  0.53365300    -0.48600
C190        C  0.90195562  0.70889201  0.49263430     0.73500
O191        O  0.87853191  0.67875326  0.98411313    -0.43400
C192        C  0.76457284  0.73219588  0.92413710     0.78200
O193        O  0.79101611  0.63901841  0.50115724    -0.55300
O194        O  0.76725597  0.75215696  0.95529315    -0.45400
O195        O  0.71564346  0.66684737  0.99358899    -0.51700
C196        C  0.76030837  0.73047606  0.56597540     0.88300
O197        O  0.87050503  0.73720566  0.49782230    -0.53600
O198        O  0.77672931  0.69769516  0.92886833    -0.56900
C199        C  0.81541023  0.96856838  0.75000115     0.83400
N200        N  0.87218340  0.96798248  0.74944553    -0.74900
C201        C  0.90131226  0.00108276  0.74982578     0.85900
N202        N  0.87371885  0.03477253  0.75079525    -0.74800
C203        C  0.81695198  0.03536458  0.75132469     0.86000
N204        N  0.78773333  0.00226170  0.75095765    -0.76500
C205        C  0.65746496  0.53448238  0.50365815     0.83400
N206        N  0.60068709  0.53404762  0.50335158    -0.74900
C207        C  0.57288294  0.50042547  0.50364233     0.85900
N208        N  0.60177323  0.46724721  0.50420305    -0.74800
C209        C  0.65853334  0.46765199  0.50449711     0.86000
N210        N  0.68646133  0.50127628  0.50420783    -0.76500
In211      In  0.79182725  0.29929464  0.50936334     1.36900
C212        C  0.74045882  0.36619201  0.50675034     0.80800
O213        O  0.80072633  0.29463208  0.94292969    -0.57700
O214        O  0.73791887  0.26139081  0.97094236    -0.48600
C215        C  0.90252110  0.29065281  0.51246419     0.73500
O216        O  0.87880213  0.32229049  0.51704132    -0.43400
C217        C  0.76184541  0.27082272  0.57979628     0.78200
O218        O  0.79254641  0.36284290  0.50241829    -0.55300
O219        O  0.75536049  0.25278543  0.54765352    -0.45400
O220        O  0.71441519  0.33551859  0.51224714    -0.51700
C221        C  0.76128555  0.27124813  0.93889122     0.88300
O222        O  0.86991791  0.26306732  0.50653527    -0.53600
O223        O  0.78426987  0.30301609  0.57615931    -0.56900
In224      In  0.68227261  0.20298099  0.75932078     1.36900
C225        C  0.73548809  0.13688879  0.75589043     0.80800
O226        O  0.67734614  0.20375363  0.69217154    -0.57700
O227        O  0.73133017  0.24333872  0.72052464    -0.48600
C228        C  0.57140441  0.21000828  0.76322010     0.73500
O229        O  0.59607815  0.17856898  0.76645645    -0.43400
C230        C  0.71236566  0.23087031  0.83006133     0.78200
O231        O  0.68322918  0.13956093  0.75213561    -0.55300
O232        O  0.71810009  0.24939069  0.79813565    -0.45400
O233        O  0.76079660  0.16784942  0.76141937    -0.51700
C234        C  0.71231126  0.23025204  0.68829034     0.88300
O235        O  0.60312395  0.23821735  0.75813211    -0.53600
O236        O  0.69081144  0.19844218  0.82603132    -0.56900
In237      In  0.29084048  0.79837518  0.74158480     1.36900
C238        C  0.23826260  0.86488915  0.74313395     0.80800
O239        O  0.28376174  0.80302586  0.67475560    -0.57700
O240        O  0.25627551  0.75199037  0.70232624    -0.48600
C241        C  0.40169536  0.79070822  0.74092459     0.73500
O242        O  0.37772047  0.82251470  0.74262908    -0.43400
C243        C  0.26078842  0.77016534  0.81216340     0.78200
O244        O  0.29070048  0.86222860  0.74110118    -0.55300
O245        O  0.23973044  0.75876845  0.77987070    -0.45400
O246        O  0.21242184  0.83370328  0.74432207    -0.51700
C247        C  0.26266655  0.77049754  0.67049136     0.88300
O248        O  0.36927652  0.76248354  0.73948081    -0.53600
O249        O  0.29723783  0.79576614  0.80857374    -0.56900
In250      In  0.18326097  0.69999685  0.49225800     1.36900
C251        C  0.23558664  0.63350150  0.49567921     0.80800
O252        O  0.19356569  0.69532751  0.92473779    -0.57700
O253        O  0.21972007  0.74659094  0.95248104    -0.48600
C254        C  0.07241193  0.70781691  0.49159544     0.73500
O255        O  0.09640953  0.67641043  0.48615098    -0.43400
C256        C  0.21543393  0.72829577  0.56222250     0.78200
O257        O  0.18335227  0.63653300  0.49917619    -0.55300
O258        O  0.23370171  0.74085315  0.52951879    -0.45400
O259        O  0.26139192  0.66432387  0.49043405    -0.51700
C260        C  0.21426737  0.72798502  0.92062057     0.88300
O261        O  0.10479948  0.73557819  0.49716452    -0.53600
O262        O  0.18071807  0.70151725  0.55931590    -0.56900
C263        C  0.31727339  0.53204088  0.50075915     0.83400
N264        N  0.28909765  0.49852462  0.50213670    -0.74900
C265        C  0.31787165  0.46524730  0.50370255     0.85900
N266        N  0.37465722  0.46552053  0.50391023    -0.74800
C267        C  0.40268689  0.49903313  0.50253414     0.86000
N268        N  0.37402540  0.53226634  0.50097165    -0.76500
In269      In  0.18388841  0.29730681  0.51386845     1.36900
C270        C  0.23870050  0.36455155  0.01323622     0.80800
O271        O  0.19109394  0.30293844  0.58064967    -0.57700
O272        O  0.21705559  0.25105847  0.55409094    -0.48600
C273        C  0.07291764  0.28970963  0.51475909     0.73500
O274        O  0.09796516  0.32317348  0.02255526    -0.43400
C275        C  0.21584699  0.27089261  0.94509496     0.78200
O276        O  0.18438128  0.36052258  0.50479089    -0.55300
O277        O  0.23320289  0.25746157  0.97765706    -0.45400
O278        O  0.26313624  0.33352216  0.02019291    -0.51700
C279        C  0.21120144  0.27019990  0.58559402     0.88300
O280        O  0.10512087  0.26201712  0.50836637    -0.53600
O281        O  0.18230523  0.29830424  0.94837953    -0.56900
In282      In  0.29014997  0.20127310  0.76501271     1.36900
C283        C  0.23860870  0.13446932  0.76119166     0.80800
O284        O  0.28229461  0.19632150  0.83183393    -0.57700
O285        O  0.25738769  0.24811330  0.80463654    -0.48600
C286        C  0.40100968  0.20920425  0.76621478     0.73500
O287        O  0.37704091  0.17782305  0.77195958    -0.43400
C288        C  0.25778465  0.22916589  0.69471348     0.78200
O289        O  0.29083879  0.13776572  0.75770384    -0.55300
O290        O  0.23753751  0.24064272  0.72727382    -0.45400
O291        O  0.21251560  0.16515394  0.76660836    -0.51700
C292        C  0.26261423  0.22922462  0.83634454     0.88300
O293        O  0.36858691  0.23688218  0.76032531    -0.53600
O294        O  0.29450911  0.20369454  0.69794985    -0.56900
C295        C  0.15660019  0.96641183  0.74807961     0.83400
N296        N  0.09981941  0.96658887  0.74768033    -0.74900
C297        C  0.07162502  0.99996133  0.75039617     0.85900
N298        N  0.10015899  0.03316881  0.75355411    -0.74800
C299        C  0.15694190  0.03303092  0.75395483     0.86000
N300        N  0.18522877  0.99963969  0.75121555    -0.76500
C301        C  0.21082600  0.09837500  0.75905209    -0.10100
C302        C  0.18686148  0.06828403  0.75693747    -0.11600
C303        C  0.23299429  0.25612168  0.90699020    -0.10100
C304        C  0.24687159  0.24394638  0.87478093    -0.11600
C305        C  0.22667954  0.25590019  0.62428660    -0.10100
C306        C  0.24040874  0.24392902  0.65662879    -0.11600
C307        C  0.28846271  0.42972500  0.50539289    -0.10100
C308        C  0.26465339  0.39955829  0.50710096    -0.11600
C309        C  0.26357121  0.59750167  0.49752757    -0.10100
C310        C  0.28735650  0.56733449  0.49905119    -0.11600
C311        C  0.18616156  0.93099764  0.74565343    -0.10100
C312        C  0.21007761  0.90086384  0.74420308    -0.11600
C313        C  0.24677886  0.75571039  0.63217250    -0.10100
C314        C  0.23281071  0.74334414  0.60009787    -0.11600
C315        C  0.23057129  0.74282722  0.88240915    -0.10100
C316        C  0.24435021  0.75519877  0.85029212    -0.11600
C317        C  0.51145102  0.21302901  0.76488016    -0.10100
C318        C  0.46094632  0.21273741  0.76582866    -0.11600
C319        C  0.96240796  0.28676444  0.51360140    -0.10100
C320        C  0.01292997  0.28647971  0.51431449    -0.11600
C321        C  0.72958317  0.24427064  0.64993290    -0.10100
C322        C  0.74444714  0.25604517  0.61780414    -0.11600
C323        C  0.74402873  0.25712787  0.90052864    -0.10100
C324        C  0.72948455  0.24542795  0.86827021    -0.11600
C325        C  0.51296811  0.49991396  0.50321608    -0.10100
C326        C  0.46260305  0.49939350  0.50286534    -0.11600
C327        C  0.71279000  0.40233740  0.50567746    -0.10100
C328        C  0.68876625  0.43244806  0.50505694    -0.11600
C329        C  0.96126768  0.00047217  0.74970834    -0.10100
C330        C  0.01166308  0.00014925  0.74993772    -0.11600
C331        C  0.78796504  0.07100850  0.75267640    -0.10100
C332        C  0.76404740  0.10112014  0.75406504    -0.11600
C333        C  0.01248235  0.71130997  0.49169546    -0.10100
C334        C  0.96196832  0.71160759  0.49195008    -0.11600
C335        C  0.68666083  0.57008907  0.50290001    -0.10100
C336        C  0.71040759  0.60028685  0.50173990    -0.11600
C337        C  0.51215958  0.78744022  0.74114879    -0.10100
C338        C  0.46164043  0.78727730  0.74081504    -0.11600
C339        C  0.78486001  0.93350063  0.74973944    -0.10100
C340        C  0.76065592  0.90346370  0.74929926    -0.11600
C341        C  0.73361860  0.75932881  0.85391758    -0.10100
C342        C  0.74823697  0.74738870  0.88604809    -0.11600
C343        C  0.74342900  0.74510987  0.60418058    -0.10100
C344        C  0.72928518  0.75719941  0.63635499    -0.11600
loop_ 
_geom_bond_atom_site_label_1 
_geom_bond_atom_site_label_2 
_geom_bond_distance 
_geom_bond_site_symmetry_2 
_ccdc_geom_bond_type 
In1           O3   2.251       .  S
In1           O4   2.253       .  S
In1          O12   2.259       .  S
In1           O6   2.244       .  S
In1           O8   2.246       .  S
In1           O9   2.258       .  S
In1          O10   2.247       .  S
In1          O13   2.250       .  S
C2            O8   1.259       .  A
C2           O10   1.260       .  A
C2          C168   1.435       .  S
O3           C11   1.258       .  A
O4           C11   1.259       .  A
C5           O12   1.259       .  A
C5            O6   1.257       .  A
C5          C165   1.436       .  S
C7            O9   1.259       .  A
C7           O13   1.257       .  A
C7          C172   1.437       .  S
C11         C169   1.437       .  S
In14         O16   2.249   1_556  S
In14         O17   2.255   1_556  S
In14         O25   2.256       .  S
In14         O21   2.244   1_556  S
In14        O191   2.245       .  S
In14        O194   2.257       .  S
In14        O195   2.245       .  S
In14        O198   2.249       .  S
C15          O23   1.259       .  A
C15         O193   1.259       .  A
C15         C336   1.433       .  S
O16          C24   1.258       .  A
O17          C24   1.260       .  A
C18          O25   1.259       .  A
C18         O191   1.258       .  A
C18         C162   1.436       .  S
O19        In186   2.245       .  S
O19         C190   1.257       .  A
C20          O22   1.259       .  A
C20          O26   1.257       .  A
C20         C170   1.437       .  S
O21         C187   1.259   1_554  A
O22        In186   2.256       .  S
O23        In186   2.247       .  S
C24         C171   1.437       .  S
O26        In186   2.251       .  S
C27         C167   1.435       .  S
C27          N28   1.357       .  A
C27          N32   1.358   1_565  A
N28          C29   1.356       .  A
C29         C157   1.432       .  S
C29          N30   1.356   1_565  A
N30          C31   1.356       .  A
C31         C159   1.434       .  S
C31          N32   1.358       .  A
C33         C163   1.434       .  S
C33          N34   1.357       .  A
C33          N38   1.358       .  A
N34          C35   1.356       .  A
C35         C153   1.432       .  S
C35          N36   1.356       .  A
N36          C37   1.356       .  A
C37         C156   1.434       .  S
C37          N38   1.358       .  A
In39         O50   2.259       .  S
In39         O44   2.243       .  S
In39         O46   2.245       .  S
In39         O47   2.254       .  S
In39         O48   2.247       .  S
In39         O51   2.247       .  S
In39        O213   2.253   1_554  S
In39        O214   2.257   1_554  S
C40          O46   1.258       .  A
C40          O48   1.259       .  A
C40         C155   1.433       .  S
O41        In211   2.251       .  S
O41          C49   1.258       .  A
O42        In211   2.252       .  S
O42          C49   1.259       .  A
C43          O50   1.260       .  A
C43          O44   1.258       .  A
C43         C147   1.437       .  S
C45          O47   1.260       .  A
C45          O51   1.258       .  A
C45         C150   1.436       .  S
C49         C151   1.436       .  S
In52         O54   2.250       .  S
In52         O55   2.254       .  S
In52         O63   2.260       .  S
In52         O57   2.246       .  S
In52         O59   2.242       .  S
In52         O60   2.255       .  S
In52         O61   2.249       .  S
In52         O64   2.248       .  S
C53          O59   1.258       .  A
C53          O61   1.260       .  A
C53         C160   1.434       .  S
O54          C62   1.258       .  A
O55          C62   1.259       .  A
C56          O63   1.259       .  A
C56          O57   1.257       .  A
C56         C145   1.437       .  S
C58          O60   1.259       .  A
C58          O64   1.258       .  A
C58         C152   1.436       .  S
C62         C149   1.437       .  S
In65         O67   2.247       .  S
In65         O68   2.252       .  S
In65         O76   2.259       .  S
In65         O70   2.243       .  S
In65         O72   2.243       .  S
In65         O73   2.253       .  S
In65         O74   2.248       .  S
In65         O77   2.248       .  S
C66          O72   1.258       .  A
C66          O74   1.259       .  A
C66         C140   1.433       .  S
O67          C75   1.257       .  A
O68          C75   1.259       .  A
C69          O76   1.259       .  A
C69          O70   1.257       .  A
C69         C166   1.436       .  S
C71          O73   1.259       .  A
C71          O77   1.258       .  A
C71         C144   1.436       .  S
C75         C141   1.435       .  S
In78         O89   2.260       .  S
In78         O83   2.242       .  S
In78         O85   2.246       .  S
In78         O86   2.250   1_556  S
In78         O87   2.246       .  S
In78         O90   2.247   1_556  S
In78        O252   2.251       .  S
In78        O253   2.253       .  S
C79          O85   1.258       .  A
C79          O87   1.259       .  A
C79         C137   1.433       .  S
O80        In250   2.251       .  S
O80          C88   1.258       .  A
O81        In250   2.252       .  S
O81          C88   1.258       .  A
C82          O89   1.259       .  A
C82          O83   1.257       .  A
C82         C161   1.436       .  S
C84          O86   1.259       .  A
C84          O90   1.258       .  A
C84         C142   1.435       .  S
C88         C143   1.436       .  S
C91         C138   1.433       .  S
C91          N92   1.357       .  A
C91          N96   1.356       .  A
N92          C93   1.357       .  A
C93         C135   1.433       .  S
C93          N94   1.356       .  A
N94          C95   1.356       .  A
C95         C154   1.432       .  S
C95          N96   1.356       .  A
In97         O99   2.248       .  S
In97        O100   2.249       .  S
In97        O108   2.259       .  S
In97        O104   2.243       .  S
In97        O274   2.247       .  S
In97        O277   2.255   1_554  S
In97        O278   2.248       .  S
In97        O281   2.251   1_554  S
C98         O106   1.259       .  A
C98         O276   1.258       .  A
C98         C308   1.433       .  S
O99         C107   1.258       .  A
O100        C107   1.259       .  A
C101        O108   1.259       .  A
C101        O274   1.258       .  A
C101        C148   1.437       .  S
O102       In269   2.244       .  S
O102        C273   1.257       .  A
C103        O105   1.260       .  A
C103        O109   1.258       .  A
C103        C131   1.435       .  S
O104        C270   1.258       .  A
O105       In269   2.253       .  S
O106       In269   2.248       .  S
C107        C133   1.435       .  S
O109       In269   2.244       .  S
In110       O112   2.246       .  S
In110       O113   2.253       .  S
In110       O121   2.259       .  S
In110       O115   2.244       .  S
In110       O117   2.245       .  S
In110       O118   2.251       .  S
In110       O119   2.249       .  S
In110       O122   2.248       .  S
C111        O117   1.258       .  A
C111        O119   1.259       .  A
C111        C129   1.433       .  S
O112        C120   1.257       .  A
O113        C120   1.259       .  A
C114        O121   1.259       .  A
C114        O115   1.258       .  A
C114        C146   1.437       .  S
C116        O118   1.259       .  A
C116        O122   1.258       .  A
C116        C134   1.435       .  S
C120        C132   1.435       .  S
C123        C139   1.434       .  S
C123        N124   1.356       .  A
C123        N128   1.358       .  A
N124        C125   1.356       .  A
C125        C158   1.432       .  S
C125        N126   1.356   1_565  A
N126        C127   1.356       .  A
C127        C130   1.434       .  S
C127        N128   1.358   1_545  A
C129        C130   1.205       .  T
C131        C132   1.205       .  T
C133        C134   1.206       .  T
C135        C136   1.204       .  T
C136        C270   1.433       .  S
C137        C138   1.204   1_556  T
C139        C140   1.205       .  T
C141        C142   1.206       .  T
C143        C144   1.206       .  T
C145        C146   1.207       .  T
C147        C148   1.207   1_655  T
C149        C150   1.206       .  T
C151        C152   1.206       .  T
C153        C154   1.204       .  T
C155        C156   1.205       .  T
C157        C158   1.204   1_655  T
C159        C160   1.205       .  T
C161        C162   1.206   1_455  T
C163        C164   1.205       .  T
C164        C187   1.433   1_554  S
C165        C166   1.206       .  T
C167        C168   1.205       .  T
C169        C170   1.207       .  T
C171        C172   1.207       .  T
In173       O175   2.251       .  S
In173       O176   2.253       .  S
In173       O184   2.261       .  S
In173       O178   2.244       .  S
In173       O180   2.246       .  S
In173       O181   2.254       .  S
In173       O182   2.244       .  S
In173       O185   2.249       .  S
C174        O180   1.258       .  A
C174        O182   1.258       .  A
C174        C340   1.432       .  S
O175        C183   1.258       .  A
O176        C183   1.259       .  A
C177        O184   1.259       .  A
C177        O178   1.257       .  A
C177        C337   1.437       .  S
C179        O181   1.259       .  A
C179        O185   1.258       .  A
C179        C344   1.437       .  S
C183        C341   1.437       .  S
In186       O188   2.250       .  S
In186       O189   2.254       .  S
In186       O197   2.259       .  S
In186       O193   2.242       .  S
C187        O195   1.260       .  A
O188        C196   1.258       .  A
O189        C196   1.259       .  A
C190        O197   1.259       .  A
C190        C334   1.437       .  S
C192        O194   1.259       .  A
C192        O198   1.257       .  A
C192        C342   1.437       .  S
C196        C343   1.437       .  S
C199        C339   1.433       .  S
C199        N200   1.356       .  A
C199        N204   1.357   1_565  A
N200        C201   1.356   1_565  A
C201        C329   1.432       .  S
C201        N202   1.356       .  A
N202        C203   1.356       .  A
C203        C331   1.432       .  S
C203        N204   1.357       .  A
C205        C335   1.433       .  S
C205        N206   1.356       .  A
C205        N210   1.358       .  A
N206        C207   1.356       .  A
C207        C325   1.431       .  S
C207        N208   1.355       .  A
N208        C209   1.356       .  A
C209        C328   1.433       .  S
C209        N210   1.357       .  A
In211       O222   2.261       .  S
In211       O216   2.244       .  S
In211       O218   2.246       .  S
In211       O219   2.253       .  S
In211       O220   2.247       .  S
In211       O223   2.249       .  S
C212        O218   1.258       .  A
C212        O220   1.258       .  A
C212        C327   1.433       .  S
O213        C221   1.258       .  A
O214        C221   1.259       .  A
C215        O222   1.260       .  A
C215        O216   1.258       .  A
C215        C319   1.437       .  S
C217        O219   1.259       .  A
C217        O223   1.258       .  A
C217        C322   1.436       .  S
C221        C323   1.438       .  S
In224       O226   2.253       .  S
In224       O227   2.253       .  S
In224       O235   2.261       .  S
In224       O229   2.243       .  S
In224       O231   2.243       .  S
In224       O232   2.255       .  S
In224       O233   2.247       .  S
In224       O236   2.250       .  S
C225        O231   1.258       .  A
C225        O233   1.259       .  A
C225        C332   1.432       .  S
O226        C234   1.258       .  A
O227        C234   1.259       .  A
C228        O235   1.260       .  A
C228        O229   1.257       .  A
C228        C317   1.437       .  S
C230        O232   1.259       .  A
C230        O236   1.258       .  A
C230        C324   1.438       .  S
C234        C321   1.437       .  S
In237       O239   2.251       .  S
In237       O240   2.252       .  S
In237       O248   2.260       .  S
In237       O242   2.242       .  S
In237       O244   2.245       .  S
In237       O245   2.253       .  S
In237       O246   2.249       .  S
In237       O249   2.251       .  S
C238        O244   1.258       .  A
C238        O246   1.259       .  A
C238        C312   1.433       .  S
O239        C247   1.258       .  A
O240        C247   1.258       .  A
C241        O248   1.260       .  A
C241        O242   1.258       .  A
C241        C338   1.437       .  S
C243        O245   1.258       .  A
C243        O249   1.258       .  A
C243        C316   1.436       .  S
C247        C313   1.436       .  S
In250       O261   2.259       .  S
In250       O255   2.243       .  S
In250       O257   2.243       .  S
In250       O258   2.252       .  S
In250       O259   2.249       .  S
In250       O262   2.248       .  S
C251        O257   1.258       .  A
C251        O259   1.259       .  A
C251        C309   1.433       .  S
O252        C260   1.258       .  A
O253        C260   1.258       .  A
C254        O261   1.259       .  A
C254        O255   1.257       .  A
C254        C333   1.437       .  S
C256        O258   1.259       .  A
C256        O262   1.258       .  A
C256        C314   1.436       .  S
C260        C315   1.436       .  S
C263        C310   1.433       .  S
C263        N264   1.358       .  A
C263        N268   1.356       .  A
N264        C265   1.358       .  A
C265        C307   1.434       .  S
C265        N266   1.356       .  A
N266        C267   1.356       .  A
C267        C326   1.431       .  S
C267        N268   1.355       .  A
In269       O271   2.252       .  S
In269       O272   2.255       .  S
In269       O280   2.261       .  S
In269       O276   2.243       .  S
C270        O278   1.259       .  A
O271        C279   1.258       .  A
O272        C279   1.259       .  A
C273        O280   1.259       .  A
C273        C320   1.437       .  S
C275        O277   1.259       .  A
C275        O281   1.258       .  A
C275        C303   1.438       .  S
C279        C305   1.438       .  S
In282       O284   2.253       .  S
In282       O285   2.255       .  S
In282       O293   2.259       .  S
In282       O287   2.245       .  S
In282       O289   2.246       .  S
In282       O290   2.257       .  S
In282       O291   2.248       .  S
In282       O294   2.250       .  S
C283        O289   1.258       .  A
C283        O291   1.259       .  A
C283        C301   1.434       .  S
O284        C292   1.258       .  A
O285        C292   1.259       .  A
C286        O293   1.259       .  A
C286        O287   1.258       .  A
C286        C318   1.437       .  S
C288        O290   1.259       .  A
C288        O294   1.258       .  A
C288        C306   1.438       .  S
C292        C304   1.438       .  S
C295        C311   1.434       .  S
C295        N296   1.356       .  A
C295        N300   1.358       .  A
N296        C297   1.356       .  A
C297        C330   1.432   1_565  S
C297        N298   1.356   1_565  A
N298        C299   1.356       .  A
C299        C302   1.434       .  S
C299        N300   1.358   1_545  A
C301        C302   1.205       .  T
C303        C304   1.207       .  T
C305        C306   1.208       .  T
C307        C308   1.205       .  T
C309        C310   1.204       .  T
C311        C312   1.205       .  T
C313        C314   1.206       .  T
C315        C316   1.206       .  T
C317        C318   1.207       .  T
C319        C320   1.207   1_655  T
C321        C322   1.206       .  T
C323        C324   1.207       .  T
C325        C326   1.203       .  T
C327        C328   1.204       .  T
C329        C330   1.204   1_655  T
C331        C332   1.204       .  T
C333        C334   1.207   1_455  T
C335        C336   1.204       .  T
C337        C338   1.207       .  T
C339        C340   1.204       .  T
C341        C342   1.207       .  T
C343        C344   1.207       .  T
