geometry optimzed in LAMMPS
_audit_creation_date              2020-12-01 
_audit_creation_method            'lammps2cif' 
_symmetry_space_group_name_H-M    'P1' 
_symmetry_Int_Tables_number       1 
_symmetry_cell_setting            triclinic 
loop_ 
_symmetry_equiv_pos_as_xyz 
  x,y,z 
_cell_length_a                    22.38658681 
_cell_length_b                    22.98688938210254 
_cell_length_c                    22.918315490903836 
_cell_angle_alpha                 89.60154915808039 
_cell_angle_beta                  90.08247136521538 
_cell_angle_gamma                 89.88495030619767 
loop_ 
_atom_site_label 
_atom_site_type_symbol 
_atom_site_fract_x 
_atom_site_fract_y 
_atom_site_fract_z 
_atom_site_charge 
O1          O  0.42572075  0.43851763  0.69418831    -0.72700
O2          O  0.57705191  0.56096517  0.69584721    -0.73700
O3          O  0.43694111  0.57455108  0.69566718    -0.62300
O4          O  0.56362781  0.42619146  0.69485302    -0.70800
O5          O  0.57517767  0.46579082  0.61111786    -0.70300
O6          O  0.42296119  0.53422607  0.61358057    -0.61600
O7          O  0.53460773  0.57513860  0.61386511    -0.74100
O8          O  0.46528287  0.42705012  0.61035026    -0.72800
Cu9        Cu  0.50076456  0.50000210  0.70305675     1.04600
Cu10       Cu  0.49962114  0.50075739  0.61121706     1.04300
C11         C  0.42608043  0.41106074  0.64495608     0.93500
C12         C  0.57585403  0.58951409  0.64705391     0.92600
C13         C  0.40740394  0.57367432  0.64703048     0.84700
C14         C  0.59096506  0.42633992  0.64513568     0.91000
O15         O  0.71141872  0.56512797  0.41288941    -0.72700
O16         O  0.71307619  0.44246213  0.56385152    -0.73700
O17         O  0.71362697  0.42923840  0.42778206    -0.62300
O18         O  0.71122934  0.57776510  0.54911530    -0.70800
O19         O  0.62668764  0.53720495  0.56177328    -0.70300
O20         O  0.62810528  0.46771903  0.41385667    -0.61600
O21         O  0.62928262  0.42789212  0.52259845    -0.74100
O22         O  0.62662659  0.57656111  0.45305313    -0.72800
Cu23       Cu  0.72044971  0.50372712  0.48839186     1.04600
Cu24       Cu  0.62663406  0.50232779  0.48783925     1.04300
C25         C  0.66071770  0.59241380  0.41331417     0.93500
C26         C  0.66352269  0.41350997  0.56293000     0.92600
C27         C  0.66351999  0.42877489  0.39945471     0.84700
C28         C  0.66078882  0.57695087  0.57667396     0.91000
O29         O  0.41830144  0.70656032  0.54898152    -0.72700
O30         O  0.57216827  0.70845087  0.42867738    -0.73700
O31         O  0.43452519  0.70720916  0.41289226    -0.62300
O32         O  0.55832332  0.70780636  0.56389699    -0.70800
O33         O  0.57289505  0.62548812  0.52402723    -0.70300
O34         O  0.42181149  0.62450055  0.45306579    -0.61600
O35         O  0.53365098  0.62470167  0.41562151    -0.74100
O36         O  0.46106619  0.62480263  0.56281113    -0.72800
Cu37       Cu  0.49568338  0.71542359  0.48869520     1.04600
Cu38       Cu  0.49726456  0.62389027  0.48891877     1.04300
C39         C  0.41940154  0.65747785  0.57698139     0.93500
C40         C  0.57313026  0.65959641  0.40086892     0.92600
C41         C  0.40675399  0.65788271  0.41285538     0.84700
C42         C  0.58793501  0.65931674  0.56338157     0.91000
O43         O  0.37338339  0.46266338  0.56130599    -0.72700
O44         O  0.37299401  0.53475651  0.41429487    -0.73700
O45         O  0.37202349  0.57151117  0.52358700    -0.62300
O46         O  0.37567774  0.42639161  0.45134966    -0.70800
O47         O  0.28919721  0.43762039  0.41355056    -0.70300
O48         O  0.28683147  0.55698030  0.56242030    -0.61600
O49         O  0.28685370  0.57245141  0.42677303    -0.74100
O50         O  0.28915564  0.42173199  0.54901775    -0.72800
Cu51       Cu  0.37444582  0.49880660  0.48769839     1.04600
Cu52       Cu  0.28003221  0.49707752  0.48790279     1.04300
C53         C  0.33955382  0.42260400  0.57676416     0.93500
C54         C  0.33730880  0.57346824  0.39917061     0.92600
C55         C  0.33661858  0.58550762  0.56264535     0.84700
C56         C  0.34029331  0.41116877  0.41261751     0.91000
O57         O  0.42506339  0.29223260  0.42637127    -0.72700
O58         O  0.57971120  0.29437712  0.54790626    -0.73700
O59         O  0.44154995  0.29159818  0.56310692    -0.62300
O60         O  0.56576798  0.29474031  0.41171333    -0.70800
O61         O  0.57729401  0.37750141  0.45129896    -0.70300
O62         O  0.42532239  0.37338626  0.52203165    -0.61600
O63         O  0.53754379  0.37670991  0.55981513    -0.74100
O64         O  0.46571819  0.37449983  0.41146555    -0.72800
Cu65       Cu  0.50315968  0.28528542  0.48712179     1.04600
Cu66       Cu  0.50132524  0.37654802  0.48614407     1.04300
C67         C  0.42469652  0.34099761  0.39767503     0.93500
C68         C  0.57845259  0.34347682  0.57524794     0.92600
C69         C  0.41205338  0.34006578  0.56288813     0.84700
C70         C  0.59367245  0.34412965  0.41196540     0.91000
O71         O  0.57924260  0.44288202  0.27952932    -0.72700
O72         O  0.42266693  0.56170256  0.27997991    -0.73700
O73         O  0.56123854  0.57865528  0.28020480    -0.62300
O74         O  0.43926874  0.42570089  0.27917595    -0.70800
O75         O  0.42477625  0.46497525  0.36164037    -0.70300
O76         O  0.57540593  0.53798604  0.36286761    -0.61600
O77         O  0.46287479  0.57423129  0.36325617    -0.74100
O78         O  0.53780251  0.42768674  0.36175157    -0.72800
Cu79       Cu  0.50063724  0.50227822  0.27179126     1.04600
Cu80       Cu  0.50028026  0.50114421  0.36337594     1.04300
C81         C  0.57930064  0.41429227  0.32841298     0.93500
C82         C  0.42219531  0.58882131  0.32935766     0.92600
C83         C  0.58944156  0.57860121  0.32957391     0.84700
C84         C  0.41010442  0.42528520  0.32800531     0.91000
C85         C  0.62547837  0.62550673  0.61217647    -0.02300
C86         C  0.87407644  0.87427949  0.86183590    -0.02300
C87         C  0.62774392  0.37761590  0.61163121    -0.02300
C88         C  0.87159414  0.12220872  0.86214810    -0.02300
C89         C  0.36980835  0.62187775  0.61205127    -0.02300
C90         C  0.12971564  0.87811064  0.86164306    -0.02300
C91         C  0.62429986  0.62794374  0.36453907    -0.02300
C92         C  0.87556179  0.87210448  0.10946869    -0.02300
C93         C  0.37624484  0.37410837  0.61235712    -0.02300
C94         C  0.12310455  0.12590534  0.86113267    -0.02300
C95         C  0.37123150  0.62318112  0.36347158    -0.02300
C96         C  0.12864336  0.87705213  0.11021785    -0.02300
C97         C  0.63015955  0.37932516  0.36311993    -0.02300
C98         C  0.86950190  0.12068571  0.11066408    -0.02300
C99         C  0.37383327  0.37573529  0.36273127    -0.02300
C100        C  0.12582765  0.12449317  0.11073066    -0.02300
O101        O  0.12392049  0.07377154  0.02215828    -0.72700
O102        O  0.12758914  0.92856748  0.95006285    -0.73700
O103        O  0.12676447  0.96543822  0.05933208    -0.62300
O104        O  0.12606824  0.03739098  0.91225074    -0.70800
O105        O  0.21029622  0.07837939  0.92438530    -0.70300
O106        O  0.21289781  0.92777310  0.04674859    -0.61600
O107        O  0.21270832  0.94312759  0.91109022    -0.74100
O108        O  0.21045565  0.06263037  0.05985979    -0.72800
Cu109      Cu  0.12515785  0.00131272  0.98588765     1.04600
Cu110      Cu  0.21956728  0.00310347  0.98554654     1.04300
C111        C  0.15934283  0.08905226  0.06083279     0.93500
C112        C  0.16294682  0.91455719  0.91096787     0.92600
C113        C  0.16249028  0.92675410  0.07443253     0.84700
C114        C  0.15985497  0.07745687  0.89671760     0.91000
O115        O  0.07411435  0.12666389  0.95150617    -0.72700
O116        O  0.92221867  0.12253802  0.02240046    -0.73700
O117        O  0.96186396  0.12323616  0.91385547    -0.62300
O118        O  0.03386249  0.12564891  0.06212468    -0.70800
O119        O  0.07446531  0.20791408  0.04708517    -0.70300
O120        O  0.91963620  0.20553784  0.92576610    -0.61600
O121        O  0.93378002  0.20530064  0.06195942    -0.74100
O122        O  0.05778845  0.20841129  0.91038533    -0.72800
Cu123      Cu  0.99816067  0.12349842  0.98748383     1.04600
Cu124      Cu  0.99627281  0.21474783  0.98644395     1.04300
C125        C  0.08731918  0.15996189  0.91061132     0.93500
C126        C  0.90588854  0.15590304  0.06175674     0.92600
C127        C  0.92090054  0.15641885  0.89845509     0.84700
C128        C  0.07489535  0.15917625  0.07582514     0.91000
O129        O  0.03696018  0.92593701  0.11048893    -0.72700
O130        O  0.96189261  0.07240187  0.11192922    -0.73700
O131        O  0.07493366  0.03523152  0.11192314    -0.62300
O132        O  0.92438609  0.96209084  0.11099225    -0.70800
O133        O  0.93870575  0.92150748  0.19367235    -0.70300
O134        O  0.06056215  0.07453286  0.19440122    -0.61600
O135        O  0.92060759  0.05726354  0.19424146    -0.74100
O136        O  0.07726189  0.93856286  0.19370870    -0.72800
Cu137      Cu  0.99947832  0.99898768  0.11033726     1.04600
Cu138      Cu  0.99926222  0.99793191  0.20193445     1.04300
C139        C  0.07769331  0.91140636  0.14435362     0.93500
C140        C  0.92044227  0.08579559  0.14532382     0.92600
C141        C  0.08963741  0.07494147  0.14552216     0.84700
C142        C  0.91042724  0.92150047  0.14434483     0.91000
O143        O  0.78600344  0.07064474  0.04614407    -0.72700
O144        O  0.78834806  0.92198859  0.92496165    -0.73700
O145        O  0.78833547  0.93479765  0.06116369    -0.62300
O146        O  0.78637020  0.05731491  0.91007445    -0.70800
O147        O  0.87019562  0.07200351  0.95121583    -0.70300
O148        O  0.87307565  0.92338659  0.02088915    -0.61600
O149        O  0.87279452  0.96265863  0.91210126    -0.74100
O150        O  0.87159455  0.03226659  0.05996265    -0.72800
Cu151      Cu  0.77915177  0.99610271  0.98561159     1.04600
Cu152      Cu  0.87295737  0.99759204  0.98601964     1.04300
C153        C  0.83615464  0.07117913  0.07439552     0.93500
C154        C  0.83873696  0.92283584  0.89731560     0.92600
C155        C  0.83905817  0.90755492  0.06069846     0.84700
C156        C  0.83589275  0.08632361  0.91091445     0.91000
O157        O  0.92425006  0.03408162  0.86269758    -0.72700
O158        O  0.07651099  0.96573888  0.86008804    -0.73700
O159        O  0.03410377  0.07291973  0.86325117    -0.62300
O160        O  0.96488631  0.92476523  0.86001550    -0.70800
O161        O  0.92235326  0.93879565  0.77805193    -0.70300
O162        O  0.07359351  0.06138819  0.77939385    -0.61600
O163        O  0.06245884  0.92532589  0.77805793    -0.74100
O164        O  0.93565313  0.07359494  0.77890048    -0.72800
Cu165      Cu  0.99982812  0.99917137  0.86252357     1.04600
Cu166      Cu  0.99857432  0.99982525  0.77068406     1.04300
C167        C  0.90838175  0.07348053  0.82865380     0.93500
C168        C  0.09205039  0.92626295  0.82666007     0.92600
C169        C  0.07326265  0.08890179  0.82859462     0.84700
C170        C  0.92362922  0.91030089  0.82687692     0.91000
O171        O  0.08136819  0.79345980  0.92485210    -0.72700
O172        O  0.92768314  0.79156517  0.04536492    -0.73700
O173        O  0.94133879  0.79208682  0.91013480    -0.62300
O174        O  0.06534905  0.79293188  0.06095684    -0.70800
O175        O  0.07793224  0.87562076  0.02069832    -0.70300
O176        O  0.92677099  0.87445602  0.94991060    -0.61600
O177        O  0.96613888  0.87536647  0.05827152    -0.74100
O178        O  0.03853397  0.87518277  0.91100323    -0.72800
Cu179      Cu  0.00408715  0.78459416  0.98525242     1.04600
Cu180      Cu  0.00243412  0.87613675  0.98493353     1.04300
C181        C  0.08019611  0.84251762  0.89681014     0.93500
C182        C  0.92671172  0.84045240  0.07311449     0.92600
C183        C  0.91170341  0.84056308  0.91062351     0.84700
C184        C  0.09307903  0.84228134  0.06091196     0.91000
C185        C  0.25072053  0.21106185  0.19107395     0.16100
C186        C  0.30482340  0.23552854  0.20984586    -0.32900
C187        C  0.30269930  0.27501327  0.25614872     0.20500
C188        C  0.24891761  0.28920306  0.28236268     0.02700
C189        C  0.19481385  0.26473059  0.26359608    -0.22600
C190        C  0.19693896  0.22524657  0.21729108     0.11900
S191        S  0.24416669  0.16289842  0.13555235    -0.06300
C192        C  0.16777633  0.16126981  0.14721942    -0.09700
C193        C  0.14918208  0.19679361  0.19246686    -0.26300
S194        S  0.25547672  0.33738047  0.33787102    -0.03500
C195        C  0.33187236  0.33899759  0.32620963    -0.17000
C196        C  0.35046029  0.30346455  0.28096880    -0.15000
H197        H  0.34673130  0.22426154  0.18919050     0.20400
H198        H  0.15290598  0.27599728  0.28425134     0.16400
H199        H  0.10318805  0.20170177  0.20620213     0.18900
H200        H  0.39645451  0.29854204  0.26723970     0.12300
C201        C  0.75207155  0.29754270  0.27377302     0.16100
C202        C  0.80519257  0.27764538  0.24808233    -0.32900
C203        C  0.80167588  0.22942893  0.21099673     0.20500
C204        C  0.74757654  0.20237117  0.20008828     0.02700
C205        C  0.69445239  0.22226998  0.22577786    -0.22600
C206        C  0.69796834  0.27049577  0.26285614     0.11900
S207        S  0.74710665  0.35508126  0.32005135    -0.06300
C208        C  0.67110001  0.34274478  0.32542857    -0.09700
C209        C  0.65135637  0.29631683  0.29212895    -0.26300
S210        S  0.75255331  0.14483830  0.15380200    -0.03500
C211        C  0.82855324  0.15721889  0.14839058    -0.17000
C212        C  0.84828709  0.20364031  0.18169825    -0.15000
H213        H  0.84743037  0.29885450  0.25665137     0.20400
H214        H  0.65221364  0.20106448  0.21720402     0.16400
H215        H  0.60534273  0.28206587  0.28977965     0.18900
H216        H  0.89429447  0.21791352  0.18403122     0.12300
C217        C  0.26595991  0.69299225  0.24892530     0.16100
C218        C  0.22739936  0.70429559  0.20208402    -0.32900
C219        C  0.21206569  0.76243150  0.19090250     0.20500
C220        C  0.23398781  0.80732339  0.22477363     0.02700
C221        C  0.27255285  0.79602035  0.27161922    -0.22600
C222        C  0.28788900  0.73787900  0.28280006     0.11900
S223        S  0.29046672  0.62560937  0.26925454    -0.06300
C224        C  0.33124983  0.65822778  0.32381200    -0.09700
C225        C  0.32502347  0.71824826  0.32605993    -0.26300
S226        S  0.20945752  0.87469963  0.20442639    -0.03500
C227        C  0.16867922  0.84205592  0.14987367    -0.17000
C228        C  0.17493071  0.78204114  0.14764046    -0.15000
H229        H  0.21013398  0.66935002  0.17551888     0.20400
H230        H  0.28981653  0.83096544  0.29818539     0.16400
H231        H  0.34661472  0.74650844  0.35707092     0.18900
H232        H  0.15335229  0.75376282  0.11663854     0.12300
C233        C  0.19854065  0.21653805  0.73849050     0.16100
C234        C  0.21478193  0.24286699  0.68553392    -0.32900
C235        C  0.26679862  0.27649095  0.68493480     0.20500
C236        C  0.30081883  0.28344008  0.73499033     0.02700
C237        C  0.28458102  0.25710893  0.78794660    -0.22600
C238        C  0.23255972  0.22349191  0.78854614     0.11900
S239        S  0.13763060  0.17378402  0.74767365    -0.06300
C240        C  0.15836589  0.16389573  0.81980112    -0.09700
C241        C  0.20941054  0.19391327  0.83561217    -0.26300
S242        S  0.36171618  0.32620402  0.72581055    -0.03500
C243        C  0.34097183  0.33611358  0.65368239    -0.17000
C244        C  0.28993360  0.30608920  0.63787102    -0.15000
H245        H  0.18803849  0.23734203  0.64656053     0.20400
H246        H  0.31132297  0.26263650  0.82692108     0.16400
H247        H  0.22898038  0.19330578  0.87884183     0.18900
H248        H  0.27035883  0.30670450  0.59464391     0.12300
C249        C  0.70249144  0.75022626  0.27553202     0.16100
C250        C  0.71996485  0.80293065  0.24967236    -0.32900
C251        C  0.76816664  0.80153844  0.21087757     0.20500
C252        C  0.79744331  0.74986809  0.19858509     0.02700
C253        C  0.77996869  0.69716558  0.22444268    -0.21800
C254        C  0.73176627  0.69855627  0.26323392     0.11900
S255        S  0.64511555  0.74303381  0.32330766    -0.06300
C256        C  0.66042522  0.66932329  0.32731450    -0.09700
C257        C  0.70782770  0.65191051  0.29273704    -0.26300
S258        S  0.85481184  0.75704801  0.15080140    -0.03500
C259        C  0.83948907  0.83075077  0.14676657    -0.17000
C260        C  0.79209590  0.84817596  0.18135315    -0.15000
H261        H  0.69697155  0.84320491  0.25937990     0.20400
H262        H  0.80295779  0.65689089  0.21473023     0.16400
H263        H  0.72370899  0.60754109  0.28932326     0.18900
H264        H  0.77620418  0.89254368  0.18474439     0.12300
C265        C  0.24732899  0.70985539  0.69221799     0.16100
C266        C  0.19402615  0.73549851  0.71116307    -0.32900
C267        C  0.19773777  0.77593024  0.75639268     0.20500
C268        C  0.25213882  0.79001303  0.78153921     0.02700
C269        C  0.30543792  0.76436687  0.76259818    -0.22600
C270        C  0.30172880  0.72394714  0.71736190     0.11900
S271        S  0.25214074  0.66047126  0.63765602    -0.06300
C272        C  0.32853024  0.65851970  0.64849467    -0.09700
C273        C  0.34851699  0.69453967  0.69256681    -0.26300
S274        S  0.24734634  0.83942011  0.83607812    -0.03500
C275        C  0.17096527  0.84142524  0.82521201    -0.17000
C276        C  0.15096068  0.80537921  0.78116457    -0.15000
H277        H  0.15155897  0.72443841  0.69146503     0.20400
H278        H  0.34790612  0.77543350  0.78229026     0.16400
H279        H  0.39486019  0.69930570  0.70528003     0.18900
H280        H  0.10461695  0.80063369  0.76844556     0.12300
C281        C  0.80681517  0.22974782  0.74835274     0.16100
C282        C  0.79845909  0.26990021  0.70282477    -0.32900
C283        C  0.74019701  0.28956179  0.69219370     0.20500
C284        C  0.69245003  0.26998381  0.72538318     0.02700
C285        C  0.70080490  0.22982269  0.77090839    -0.22600
C286        C  0.75907142  0.21016352  0.78154385     0.11900
S287        S  0.87396759  0.20112028  0.76825064    -0.06300
C288        C  0.83743613  0.16180673  0.82170464    -0.09700
C289        C  0.77631133  0.17114076  0.82383522    -0.26300
S290        S  0.62530750  0.29865507  0.70550025    -0.03500
C291        C  0.66185828  0.33796963  0.65205845    -0.17000
C292        C  0.72297500  0.32860304  0.64991997    -0.15000
H293        H  0.83574309  0.28518284  0.67689485     0.20400
H294        H  0.66352209  0.21454675  0.79684315     0.16400
H295        H  0.74605487  0.15096436  0.85463433     0.18900
H296        H  0.75324474  0.34877477  0.61913057     0.12300
C297        C  0.74188313  0.72870914  0.68106424     0.16100
C298        C  0.78976749  0.76628296  0.69189162    -0.32900
C299        C  0.79668837  0.78698557  0.74886501     0.20500
C300        C  0.75780175  0.77083027  0.79308443     0.02700
C301        C  0.70992366  0.73323883  0.78226114    -0.22600
C302        C  0.70299099  0.71255033  0.72527806     0.11900
S303        S  0.72554555  0.69947631  0.61487034    -0.06300
C304        C  0.66586069  0.66446145  0.64701420    -0.09700
C305        C  0.65928750  0.67562674  0.70609749    -0.26300
S306        S  0.77410031  0.80015844  0.85925108    -0.03500
C307        C  0.83373919  0.83521996  0.82706710    -0.17000
C308        C  0.84034369  0.82397539  0.76800705    -0.15000
H309        H  0.82020133  0.77892347  0.65739243     0.20400
H310        H  0.67947700  0.72061537  0.81675526     0.16400
H311        H  0.62428136  0.65830332  0.73364333     0.18900
H312        H  0.87532776  0.84131005  0.74044120     0.12300
loop_ 
_geom_bond_atom_site_label_1 
_geom_bond_atom_site_label_2 
_geom_bond_distance 
_geom_bond_site_symmetry_2 
_ccdc_geom_bond_type 
O1           Cu9   2.208       .  S
O1           C11   1.297       .  A
O2           Cu9   2.217       .  S
O2           C12   1.293       .  A
O3           Cu9   2.234       .  S
O3           C13   1.296       .  A
O4           Cu9   2.211       .  S
O4           C14   1.294       .  A
O5          Cu10   1.871       .  S
O5           C14   1.242       .  A
O6          Cu10   1.880       .  S
O6           C13   1.241       .  A
O7          Cu10   1.883       .  S
O7           C12   1.242       .  A
O8          Cu10   1.862       .  S
O8           C11   1.238       .  A
Cu9         Cu10   2.105       .  S
C11          C93   1.592       .  S
C12          C85   1.598       .  S
C13          C89   1.600       .  S
C14          C87   1.591       .  S
O15         Cu23   2.234       .  S
O15          C25   1.296       .  A
O16         Cu23   2.229       .  S
O16          C26   1.295       .  A
O17         Cu23   2.218       .  S
O17          C27   1.295       .  A
O18         Cu23   2.215       .  S
O18          C28   1.295       .  A
O19         Cu24   1.880       .  S
O19          C28   1.241       .  A
O20         Cu24   1.878       .  S
O20          C27   1.241       .  A
O21         Cu24   1.883       .  S
O21          C26   1.243       .  A
O22         Cu24   1.878       .  S
O22          C25   1.242       .  A
Cu23        Cu24   2.101       .  S
C25          C91   1.601       .  S
C26          C87   1.600       .  S
C27          C97   1.599       .  S
C28          C85   1.595       .  S
O29         Cu37   2.226       .  S
O29          C39   1.294       .  A
O30         Cu37   2.204       .  S
O30          C40   1.295       .  A
O31         Cu37   2.220       .  S
O31          C41   1.294       .  A
O32         Cu37   2.226       .  S
O32          C42   1.296       .  A
O33         Cu38   1.874       .  S
O33          C42   1.242       .  A
O34         Cu38   1.877       .  S
O34          C41   1.241       .  A
O35         Cu38   1.868       .  S
O35          C40   1.240       .  A
O36         Cu38   1.879       .  S
O36          C39   1.241       .  A
Cu37        Cu38   2.104       .  S
C39          C89   1.595       .  S
C40          C91   1.595       .  S
C41          C95   1.601       .  S
C42          C85   1.595       .  S
O43         Cu51   1.875       .  S
O43          C53   1.243       .  A
O44         Cu51   1.869       .  S
O44          C54   1.242       .  A
O45         Cu51   1.869       .  S
O45          C55   1.240       .  A
O46         Cu51   1.867       .  S
O46          C56   1.241       .  A
O47         Cu52   2.201       .  S
O47          C56   1.295       .  A
O48         Cu52   2.207       .  S
O48          C55   1.294       .  A
O49         Cu52   2.226       .  S
O49          C54   1.296       .  A
O50         Cu52   2.229       .  S
O50          C53   1.295       .  A
Cu51        Cu52   2.114       .  S
C53          C93   1.601       .  S
C54          C95   1.595       .  S
C55          C89   1.596       .  S
C56          C99   1.596       .  S
O57         Cu65   2.238       .  S
O57          C67   1.296       .  A
O58         Cu65   2.218       .  S
O58          C68   1.295       .  A
O59         Cu65   2.228       .  S
O59          C69   1.294       .  A
O60         Cu65   2.236       .  S
O60          C70   1.297       .  A
O61         Cu66   1.880       .  S
O61          C70   1.243       .  A
O62         Cu66   1.892       .  S
O62          C69   1.242       .  A
O63         Cu66   1.872       .  S
O63          C68   1.241       .  A
O64         Cu66   1.888       .  S
O64          C67   1.242       .  A
Cu65        Cu66   2.098       .  S
C67          C99   1.600       .  S
C68          C87   1.593       .  S
C69          C93   1.598       .  S
C70          C97   1.602       .  S
O71         Cu79   2.231       .  S
O71          C81   1.295       .  A
O72         Cu79   2.223       .  S
O72          C82   1.296       .  A
O73         Cu79   2.230       .  S
O73          C83   1.295       .  A
O74         Cu79   2.241       .  S
O74          C84   1.296       .  A
O75         Cu80   1.886       .  S
O75          C84   1.243       .  A
O76         Cu80   1.885       .  S
O76          C83   1.243       .  A
O77         Cu80   1.876       .  S
O77          C82   1.240       .  A
O78         Cu80   1.885       .  S
O78          C81   1.243       .  A
Cu79        Cu80   2.099       .  S
C81          C97   1.600       .  S
C82          C95   1.595       .  S
C83          C91   1.597       .  S
C84          C99   1.607       .  S
C85         C304   1.506       .  S
C86         C154   1.595       .  S
C86         C170   1.598       .  S
C86         C183   1.595       .  S
C86         C307   1.506       .  S
C87         C291   1.502       .  S
C88         C127   1.593       .  S
C88         C156   1.600       .  S
C88         C167   1.591       .  S
C88         C288   1.502       .  S
C89         C272   1.507       .  S
C90         C112   1.596       .  S
C90         C168   1.600       .  S
C90         C181   1.595       .  S
C90         C275   1.507       .  S
C91         C256   1.510       .  S
C92         C142   1.597       .  S
C92         C155   1.601       .  S
C92         C182   1.595       .  S
C92         C259   1.510       .  S
C93         C243   1.509       .  S
C94         C114   1.601       .  S
C94         C125   1.598       .  S
C94         C169   1.592       .  S
C94         C240   1.509       .  S
C95         C224   1.504       .  S
C96         C113   1.595       .  S
C96         C139   1.595       .  S
C96         C184   1.601       .  S
C96         C227   1.504       .  S
C97         C208   1.517       .  S
C98         C126   1.602       .  S
C98         C140   1.600       .  S
C98         C153   1.599       .  S
C98         C211   1.517       .  S
C99         C195   1.519       .  S
C100        C111   1.596       .  S
C100        C128   1.600       .  S
C100        C141   1.607       .  S
C100        C192   1.519       .  S
O101       Cu109   1.867   1_554  S
O101        C111   1.241       .  A
O102       Cu109   1.869   1_565  S
O102        C112   1.240       .  A
O103       Cu109   1.869   1_564  S
O103        C113   1.242       .  A
O104       Cu109   1.875       .  S
O104        C114   1.243       .  A
O105       Cu110   2.228       .  S
O105        C114   1.295       .  A
O106       Cu110   2.226   1_564  S
O106        C113   1.296       .  A
O107       Cu110   2.207   1_565  S
O107        C112   1.294       .  A
O108       Cu110   2.202   1_554  S
O108        C111   1.295       .  A
Cu109      Cu110   2.114       .  S
O115       Cu123   1.892   1_455  S
O115        C125   1.242       .  A
O116       Cu123   1.880   1_554  S
O116        C126   1.243       .  A
O117       Cu123   1.872       .  S
O117        C127   1.241       .  A
O118       Cu123   1.888   1_454  S
O118        C128   1.242       .  A
O119       Cu124   2.238   1_454  S
O119        C128   1.296       .  A
O120       Cu124   2.218       .  S
O120        C127   1.295       .  A
O121       Cu124   2.237   1_554  S
O121        C126   1.297       .  A
O122       Cu124   2.228   1_455  S
O122        C125   1.294       .  A
Cu123      Cu124   2.098       .  S
O129       Cu137   1.876   1_455  S
O129        C139   1.240       .  A
O130       Cu137   1.885   1_545  S
O130        C140   1.243       .  A
O131       Cu137   1.885   1_445  S
O131        C141   1.243       .  A
O132       Cu137   1.884       .  S
O132        C142   1.243       .  A
O133       Cu138   2.230       .  S
O133        C142   1.295       .  A
O134       Cu138   2.240   1_445  S
O134        C141   1.296       .  A
O135       Cu138   2.231   1_545  S
O135        C140   1.295       .  A
O136       Cu138   2.223   1_455  S
O136        C139   1.296       .  A
Cu137      Cu138   2.099       .  S
O143       Cu151   2.218   1_544  S
O143        C153   1.295       .  A
O144       Cu151   2.216       .  S
O144        C154   1.295       .  A
O145       Cu151   2.234   1_554  S
O145        C155   1.296       .  A
O146       Cu151   2.230   1_545  S
O146        C156   1.295       .  A
O147       Cu152   1.883   1_545  S
O147        C156   1.243       .  A
O148       Cu152   1.879   1_554  S
O148        C155   1.242       .  A
O149       Cu152   1.880       .  S
O149        C154   1.241       .  A
O150       Cu152   1.878   1_544  S
O150        C153   1.241       .  A
Cu151      Cu152   2.100       .  S
O157       Cu165   1.871   1_545  S
O157        C167   1.242       .  A
O158       Cu165   1.880   1_455  S
O158        C168   1.241       .  A
O159       Cu165   1.862   1_445  S
O159        C169   1.238       .  A
O160       Cu165   1.883       .  S
O160        C170   1.242       .  A
O161       Cu166   2.217       .  S
O161        C170   1.293       .  A
O162       Cu166   2.208   1_445  S
O162        C169   1.297       .  A
O163       Cu166   2.234   1_455  S
O163        C168   1.295       .  A
O164       Cu166   2.211   1_545  S
O164        C167   1.294       .  A
Cu165      Cu166   2.105       .  S
O171       Cu179   2.226       .  S
O171        C181   1.294       .  A
O172       Cu179   2.204   1_654  S
O172        C182   1.295       .  A
O173       Cu179   2.226   1_655  S
O173        C183   1.296       .  A
O174       Cu179   2.220   1_554  S
O174        C184   1.294       .  A
O175       Cu180   1.877   1_554  S
O175        C184   1.241       .  A
O176       Cu180   1.874   1_655  S
O176        C183   1.242       .  A
O177       Cu180   1.868   1_654  S
O177        C182   1.240       .  A
O178       Cu180   1.879       .  S
O178        C181   1.241       .  A
Cu179      Cu180   2.104       .  S
C185        S191   1.699       .  A
C185        C190   1.386       .  A
C185        C186   1.405       .  A
C186        C187   1.402       .  A
C186        H197   1.083       .  S
C187        C196   1.379       .  A
C187        C188   1.386       .  A
C188        S194   1.699       .  A
C188        C189   1.405       .  A
C189        C190   1.402       .  A
C189        H198   1.083       .  S
C190        C193   1.379       .  A
S191        C192   1.732       .  A
C192        C193   1.388       .  A
C193        H199   1.083       .  S
S194        C195   1.732       .  A
C195        C196   1.388       .  A
C196        H200   1.083       .  S
C201        S207   1.705       .  A
C201        C206   1.386       .  A
C201        C202   1.405       .  A
C202        C203   1.404       .  A
C202        H213   1.083       .  S
C203        C212   1.377       .  A
C203        C204   1.386       .  A
C204        S210   1.705       .  A
C204        C205   1.405       .  A
C205        C206   1.404       .  A
C205        H214   1.083       .  S
C206        C209   1.377       .  A
S207        C208   1.730       .  A
C208        C209   1.389       .  A
C209        H215   1.083       .  S
S210        C211   1.730       .  A
C211        C212   1.389       .  A
C212        H216   1.083       .  S
C217        S223   1.704       .  A
C217        C222   1.386       .  A
C217        C218   1.399       .  A
C218        C219   1.401       .  A
C218        H229   1.083       .  S
C219        C228   1.366       .  A
C219        C220   1.386       .  A
C220        S226   1.704       .  A
C220        C221   1.399       .  A
C221        C222   1.401       .  A
C221        H230   1.083       .  S
C222        C225   1.367       .  A
S223        C224   1.724       .  A
C224        C225   1.388       .  A
C225        H231   1.080       .  S
S226        C227   1.724       .  A
C227        C228   1.388       .  A
C228        H232   1.080       .  S
C233        S239   1.695       .  A
C233        C238   1.386       .  A
C233        C234   1.401       .  A
C234        C235   1.399       .  A
C234        H245   1.083       .  S
C235        C244   1.374       .  A
C235        C236   1.386       .  A
C236        S242   1.695       .  A
C236        C237   1.401       .  A
C237        C238   1.399       .  A
C237        H246   1.083       .  S
C238        C241   1.374       .  A
S239        C240   1.730       .  A
C240        C241   1.385       .  A
C241        H247   1.083       .  S
S242        C243   1.730       .  A
C243        C244   1.385       .  A
C244        H248   1.083       .  S
C249        S255   1.697       .  A
C249        C254   1.386       .  A
C249        C250   1.402       .  A
C250        C251   1.400       .  A
C250        H261   1.083       .  S
C251        C260   1.374       .  A
C251        C252   1.386       .  A
C252        S258   1.697       .  A
C252        C253   1.402       .  A
C253        C254   1.400       .  A
C253        H262   1.083       .  S
C254        C257   1.374       .  A
S255        C256   1.730       .  A
C256        C257   1.385       .  A
C257        H263   1.083       .  S
S258        C259   1.730       .  A
C259        C260   1.385       .  A
C260        H264   1.083       .  S
C265        S271   1.698       .  A
C265        C270   1.386       .  A
C265        C266   1.401       .  A
C266        C267   1.400       .  A
C266        H277   1.083       .  S
C267        C276   1.372       .  A
C267        C268   1.386       .  A
C268        S274   1.698       .  A
C268        C269   1.401       .  A
C269        C270   1.399       .  A
C269        H278   1.083       .  S
C270        C273   1.372       .  A
S271        C272   1.728       .  A
C272        C273   1.385       .  A
C273        H279   1.083       .  S
S274        C275   1.728       .  A
C275        C276   1.385       .  A
C276        H280   1.083       .  S
C281        S287   1.700       .  A
C281        C286   1.387       .  A
C281        C282   1.400       .  A
C282        C283   1.400       .  A
C282        H293   1.083       .  S
C283        C292   1.370       .  A
C283        C284   1.387       .  A
C284        S290   1.700       .  A
C284        C285   1.400       .  A
C285        C286   1.400       .  A
C285        H294   1.083       .  S
C286        C289   1.371       .  A
S287        C288   1.725       .  A
C288        C289   1.386       .  A
C289        H295   1.082       .  S
S290        C291   1.725       .  A
C291        C292   1.386       .  A
C292        H296   1.082       .  S
C297        S303   1.703       .  A
C297        C302   1.386       .  A
C297        C298   1.401       .  A
C298        C299   1.401       .  A
C298        H309   1.083       .  S
C299        C308   1.370       .  A
C299        C300   1.386       .  A
C300        S306   1.703       .  A
C300        C301   1.401       .  A
C301        C302   1.401       .  A
C301        H310   1.083       .  S
C302        C305   1.370       .  A
S303        C304   1.725       .  A
C304        C305   1.388       .  A
C305        H311   1.082       .  S
S306        C307   1.725       .  A
C307        C308   1.388       .  A
C308        H312   1.082       .  S
