geometry optimzed in LAMMPS
_audit_creation_date              2020-12-01 
_audit_creation_method            'lammps2cif' 
_symmetry_space_group_name_H-M    'P1' 
_symmetry_Int_Tables_number       1 
_symmetry_cell_setting            triclinic 
loop_ 
_symmetry_equiv_pos_as_xyz 
  x,y,z 
_cell_length_a                    52.33031035 
_cell_length_b                    52.496529089949625 
_cell_length_c                    30.361345655512785 
_cell_angle_alpha                 90.00017190061972 
_cell_angle_beta                  90.0014319913191 
_cell_angle_gamma                 123.18516565372529 
loop_ 
_atom_site_label 
_atom_site_type_symbol 
_atom_site_fract_x 
_atom_site_fract_y 
_atom_site_fract_z 
_atom_site_charge 
N1          N  0.08181228  0.53005790  0.49740895    -0.26500
N2          N  0.07139830  0.52957545  0.45760566    -0.33900
C3          C  0.04073954  0.51342322  0.45839032     0.02300
C4          C  0.03128186  0.50314181  0.50084292     0.08300
C5          C  0.05790039  0.51412289  0.52483780    -0.04800
H6          H  0.02645390  0.50909910  0.42994795     0.09000
H7          H  0.05976054  0.51050668  0.55945269     0.10200
Cu8        Cu  0.09941168  0.54926476  0.40380789     0.44200
Cu9        Cu  0.12829776  0.55183994  0.51030220     0.42000
Cu10       Cu  0.18024424  0.58319852  0.41340114     0.43900
N11         N  0.12877630  0.56514837  0.35096906    -0.33400
N12         N  0.15848231  0.57718083  0.35321124    -0.27700
C13         C  0.16993200  0.58314078  0.31189182    -0.03800
C14         C  0.14605288  0.57431744  0.28272758     0.08400
C15         C  0.12046786  0.56312496  0.30878930     0.02200
H16         H  0.19360940  0.59257550  0.30372340     0.09900
H17         H  0.09720547  0.55340206  0.29798976     0.08900
N18         N  0.19420236  0.58595759  0.47854250    -0.34900
N19         N  0.17569473  0.57481979  0.51306109    -0.27100
C20         C  0.19252248  0.58086219  0.54978786    -0.02300
C21         C  0.22286511  0.59644840  0.53775254     0.06300
C22         C  0.22321650  0.59933853  0.49255440     0.04400
H23         H  0.18329609  0.57439623  0.58275357     0.09500
H24         H  0.24307183  0.61038697  0.47134927     0.08300
C25         C  0.35494559  0.65589115  0.64678569    -0.01300
N26         N  0.47776738  0.51812539  0.49705055    -0.26100
N27         N  0.47774579  0.50764131  0.45750984    -0.33900
C28         C  0.49427417  0.49509508  0.45837657     0.02300
C29         C  0.50530781  0.49778859  0.50060298     0.08300
C30         C  0.49437651  0.51246877  0.52436306    -0.04800
H31         H  0.49831376  0.48519171  0.43013987     0.09000
H32         H  0.49848789  0.51890154  0.55874101     0.10200
Cu33       Cu  0.45683425  0.51276373  0.40387466     0.44200
Cu34       Cu  0.45575888  0.54048973  0.50982994     0.42000
Cu35       Cu  0.42306144  0.55656155  0.41318529     0.43900
N36         N  0.44020092  0.52401028  0.35101978    -0.33400
N37         N  0.42835470  0.54066173  0.35318234    -0.27700
C38         C  0.42224403  0.54540816  0.31185564    -0.03800
C39         C  0.43077113  0.53096359  0.28272520     0.08400
C40         C  0.44191891  0.51764916  0.30885184     0.02200
H41         H  0.41307067  0.55893666  0.30363451     0.09900
H42         H  0.45160542  0.50504073  0.29806260     0.08900
N43         N  0.42092977  0.56820741  0.47815823    -0.34900
N44         N  0.43253287  0.56241526  0.51262398    -0.27100
C45         C  0.42681124  0.57295144  0.54925830    -0.02300
C46         C  0.41094160  0.58589495  0.53721961     0.06300
C47         C  0.40756555  0.58255519  0.49210924     0.04400
H48         H  0.43370693  0.57127266  0.58216111     0.09500
H49         H  0.39621140  0.58996029  0.47092171     0.08300
N50         N  0.94906683  0.45698688  0.52001808    -0.26100
N51         N  0.95945073  0.45700312  0.55965648    -0.33900
C52         C  0.99011399  0.47320842  0.55891404     0.02300
C53         C  0.99960013  0.48397252  0.51664954     0.08300
C54         C  0.97299805  0.47324183  0.49273143    -0.04800
H55         H  0.00437975  0.47714547  0.58723208     0.09000
H56         H  0.97115985  0.47720621  0.45825360     0.10200
Cu57       Cu  0.93137818  0.43650109  0.61319282     0.44200
Cu58       Cu  0.90259105  0.43525889  0.50706077     0.42000
Cu59       Cu  0.85053443  0.40259587  0.60357516     0.43900
N60         N  0.90195676  0.42037253  0.66597622    -0.33400
N61         N  0.87226432  0.40841421  0.66372350    -0.27700
C62         C  0.86082181  0.40256870  0.70504168    -0.03800
C63         C  0.88469024  0.41139944  0.73422427     0.08400
C64         C  0.91026052  0.42245473  0.70817027     0.02200
H65         H  0.83717556  0.39330212  0.71320008     0.09900
H66         H  0.93352812  0.43223435  0.71898942     0.08900
N67         N  0.83661074  0.40026955  0.53852766    -0.34900
N68         N  0.85516721  0.41192415  0.50412150    -0.27100
C69         C  0.83836098  0.40602864  0.46740607    -0.02300
C70         C  0.80798006  0.38999044  0.47933897     0.06300
C71         C  0.80758813  0.38668920  0.52446056     0.04400
H72         H  0.84762451  0.41286582  0.43451318     0.09500
H73         H  0.78769825  0.37520912  0.54557269     0.08300
N74         N  0.55261681  0.46746491  0.51998611    -0.26100
N75         N  0.55263377  0.47794457  0.55952898    -0.33900
C76         C  0.53607092  0.49045374  0.55867542     0.02300
C77         C  0.52502158  0.48774288  0.51645566     0.08300
C78         C  0.53597699  0.47308850  0.49268612    -0.04800
H79         H  0.53203354  0.50035951  0.58691130     0.09000
H80         H  0.53187230  0.46666226  0.45830536     0.10200
Cu81       Cu  0.57362888  0.47291521  0.61314146     0.44200
Cu82       Cu  0.57468252  0.44516145  0.50717119     0.42000
Cu83       Cu  0.60749784  0.42921668  0.60378707     0.43900
N84         N  0.59041843  0.46181099  0.66596030    -0.33400
N85         N  0.60229490  0.44518771  0.66378102    -0.27700
C86         C  0.60850672  0.44052375  0.70509113    -0.03800
C87         C  0.60002001  0.45499780  0.73422970     0.08400
C88         C  0.58878743  0.46824192  0.70812425     0.02200
H89         H  0.61772798  0.42703617  0.71329810     0.09900
H90         H  0.57909639  0.48084271  0.71893051     0.08900
N91         N  0.60953998  0.41747693  0.53883973    -0.34900
N92         N  0.59790190  0.42322927  0.50437706    -0.27100
C93         C  0.60358465  0.41264825  0.46775601    -0.02300
C94         C  0.61946344  0.39971574  0.47980394     0.06300
C95         C  0.62288726  0.40311042  0.52490261     0.04400
H96         H  0.59666594  0.41429849  0.43485530     0.09500
H97         H  0.63427391  0.39574158  0.54608968     0.08300
C98         C  0.67580144  0.33000726  0.37033756    -0.01300
N99         N  0.49112346  0.92824092  0.49659013    -0.26100
N100        N  0.50251031  0.94011609  0.45753370    -0.33900
C101        C  0.51452131  0.97020998  0.45863171     0.02300
C102        C  0.51051521  0.97772304  0.50050599     0.08300
C103        C  0.49563298  0.95058676  0.52382473    -0.04800
H104        H  0.52495418  0.98535041  0.43077178     0.09000
H105        H  0.48832820  0.94725410  0.55784201     0.10200
Cu106      Cu  0.49919152  0.91436373  0.40407690     0.44200
Cu107      Cu  0.46939866  0.88188914  0.50894983     0.42000
Cu108      Cu  0.45724762  0.83274180  0.41288811     0.43900
N109        N  0.48879555  0.88581646  0.35110513    -0.33400
N110        N  0.47284314  0.85578066  0.35312813    -0.27700
C111        C  0.46834353  0.84464031  0.31176028    -0.03800
C112        C  0.48220605  0.86903827  0.28275524     0.08400
C113        C  0.49492609  0.89464219  0.30896748     0.02200
H114        H  0.45536240  0.82069999  0.30343375     0.09900
H115        H  0.50695997  0.91810171  0.29826890     0.08900
N116        N  0.44492460  0.81744549  0.47754388    -0.34900
N117        N  0.44919779  0.83502305  0.51180322    -0.27100
C118        C  0.43852326  0.81767422  0.54830224    -0.02300
C119        C  0.42710511  0.78795282  0.53640503     0.06300
C120        C  0.43144692  0.78850164  0.49149846     0.04400
H121        H  0.43904797  0.82612787  0.58101401     0.09500
H122        H  0.42523735  0.76931010  0.47044563     0.08300
N123        N  0.53910753  0.05755069  0.52036872    -0.26100
N124        N  0.52782336  0.04569973  0.55947383    -0.33900
C125        C  0.51576973  0.01559743  0.55836501     0.02300
C126        C  0.51965086  0.00805676  0.51643766     0.08300
C127        C  0.53449681  0.03518347  0.49309707    -0.04800
H128        H  0.50542520  0.00047560  0.58626375     0.09000
H129        H  0.54172729  0.03849861  0.45904553     0.10200
Cu130      Cu  0.53138418  0.07149977  0.61301431     0.44200
Cu131      Cu  0.56088296  0.10390429  0.50799123     0.42000
Cu132      Cu  0.57337820  0.15312705  0.60407635     0.43900
N133        N  0.54191191  0.10010156  0.66595861    -0.33400
N134        N  0.55787059  0.13013572  0.66387799    -0.27700
C135        C  0.56240593  0.14131639  0.70522298    -0.03800
C136        C  0.54855432  0.11694751  0.73427509     0.08400
C137        C  0.53581050  0.09131697  0.70811526     0.02200
H138        H  0.57538331  0.16526460  0.71349953     0.09900
H139        H  0.52376088  0.06786663  0.71886005     0.08900
N140        N  0.58561069  0.16839514  0.53939832    -0.34900
N141        N  0.58121209  0.15078757  0.50512211    -0.27100
C142        C  0.59188436  0.16812514  0.46861248    -0.02300
C143        C  0.60343274  0.19787107  0.48052261     0.06300
C144        C  0.59916867  0.19734788  0.52544637     0.04400
H145        H  0.59128266  0.15964943  0.43588886     0.09500
H146        H  0.60549738  0.21656440  0.54651534     0.08300
N147        N  0.55298030  0.46779160  0.99702820    -0.26100
N148        N  0.55304851  0.47831581  0.95749914    -0.33900
C149        C  0.53652421  0.49086711  0.95834898     0.02300
C150        C  0.52544783  0.48813849  0.00055401     0.08300
C151        C  0.53634876  0.47343137  0.02431794    -0.04800
H152        H  0.53251959  0.50080115  0.93011606     0.09000
H153        H  0.53219774  0.46696497  0.05868133     0.10200
Cu154      Cu  0.57401341  0.47323656  0.90389788     0.44200
Cu155      Cu  0.57494809  0.44538715  0.00982002     0.42000
Cu156      Cu  0.60766326  0.42932519  0.91319470     0.43900
N157        N  0.59064748  0.46198883  0.85104872    -0.33400
N158        N  0.60244142  0.44529015  0.85320378    -0.27700
C159        C  0.60854895  0.44054333  0.81187640    -0.03800
C160        C  0.60007531  0.45503767  0.78275367     0.08400
C161        C  0.58896179  0.46838143  0.80888528     0.02200
H162        H  0.61767895  0.42697773  0.80364858     0.09900
H163        H  0.57931237  0.48102520  0.79810102     0.08900
N164        N  0.60974818  0.41763695  0.97815978    -0.34900
N165        N  0.59813967  0.42342599  0.01262101    -0.27100
C166        C  0.60384402  0.41287426  0.04925489    -0.02300
C167        C  0.61970767  0.39992373  0.03721945     0.06300
C168        C  0.62309865  0.40327608  0.99211248     0.04400
H169        H  0.59694932  0.41455586  0.08215660     0.09500
H170        H  0.63446240  0.39587956  0.97093008     0.08300
N171        N  0.47810321  0.51842885  0.01990185    -0.26100
N172        N  0.47814732  0.50801502  0.05947009    -0.33900
C173        C  0.49472612  0.49552358  0.05862821     0.02300
C174        C  0.50572763  0.49818053  0.01639091     0.08300
C175        C  0.49472492  0.51278367  0.99259663    -0.04800
H176        H  0.49881198  0.48567204  0.08688569     0.09000
H177        H  0.49878374  0.51915856  0.95819507     0.10200
Cu178      Cu  0.45721512  0.51310979  0.11309895     0.44200
Cu179      Cu  0.45597568  0.54067293  0.00707825     0.42000
Cu180      Cu  0.42321394  0.55667580  0.10373805     0.43900
N181        N  0.44043497  0.52421064  0.16592841    -0.33400
N182        N  0.42849961  0.54078049  0.16374871    -0.27700
C183        C  0.42228311  0.54543548  0.20506160    -0.03800
C184        C  0.43082921  0.53101109  0.23420057     0.08400
C185        C  0.44210184  0.51780671  0.20809291     0.02200
H186        H  0.41300983  0.55887654  0.21326921     0.09900
H187        H  0.45183310  0.50524219  0.21889627     0.08900
N188        N  0.42111011  0.56835000  0.03877272    -0.34900
N189        N  0.43272378  0.56257596  0.00430138    -0.27100
C190        C  0.42701565  0.57313584  0.96767914    -0.02300
C191        C  0.41114646  0.58607724  0.97973466     0.06300
C192        C  0.40775496  0.58270993  0.02483902     0.04400
H193        H  0.43392192  0.57147662  0.93477413     0.09500
H194        H  0.39639489  0.59010356  0.04603489     0.08300
C195        C  0.35496476  0.65595884  0.87032407    -0.01300
N196        N  0.08172368  0.52919610  0.01995767    -0.26100
N197        N  0.07133501  0.52912629  0.05961365    -0.33900
C198        C  0.04067206  0.51294121  0.05885523     0.02300
C199        C  0.03118991  0.50224011  0.01656298     0.08300
C200        C  0.05779552  0.51299006  0.99264524    -0.04800
H201        H  0.02640275  0.50896096  0.08718533     0.09000
H202        H  0.05963752  0.50906938  0.95815035     0.10200
Cu203      Cu  0.09940621  0.54951203  0.11318949     0.44200
Cu204      Cu  0.12820464  0.55093095  0.00702776     0.42000
Cu205      Cu  0.18027109  0.58351136  0.10357501     0.43900
N206        N  0.12881731  0.56556278  0.16599017    -0.33400
N207        N  0.15851841  0.57756774  0.16373743    -0.27700
C208        C  0.16995392  0.58337678  0.20506042    -0.03800
C209        C  0.14607140  0.57447270  0.23424511     0.08400
C210        C  0.12050063  0.56341141  0.20818831     0.02200
H211        H  0.19360818  0.59268157  0.21321768     0.09900
H212        H  0.09722737  0.55359858  0.21900447     0.08900
N213        N  0.19418894  0.58589708  0.03851083    -0.34900
N214        N  0.17563051  0.57426853  0.00410051    -0.27100
C215        C  0.19243401  0.58017100  0.96738195    -0.02300
C216        C  0.22281459  0.59618611  0.97931568     0.06300
C217        C  0.22321004  0.59946735  0.02444228     0.04400
H218        H  0.18316799  0.57334201  0.93448786     0.09500
H219        H  0.24310048  0.61091349  0.04555940     0.08300
N220        N  0.49168880  0.92843608  0.02030692    -0.26100
N221        N  0.50293350  0.94028604  0.05942820    -0.33900
C222        C  0.51496802  0.97038435  0.05831784     0.02300
C223        C  0.51111296  0.97792446  0.01637533     0.08300
C224        C  0.49630280  0.95080064  0.99302521    -0.04800
H225        H  0.52527957  0.98550354  0.08622697     0.09000
H226        H  0.48910275  0.94748641  0.95895845     0.10200
Cu227      Cu  0.49934963  0.91449404  0.11299506     0.44200
Cu228      Cu  0.46996512  0.88208621  0.00792243     0.42000
Cu229      Cu  0.45746678  0.83288294  0.10405254     0.43900
N230        N  0.48883858  0.88590447  0.16595207    -0.33400
N231        N  0.47292421  0.85587153  0.16386875    -0.27700
C232        C  0.46839771  0.84469322  0.20521494    -0.03800
C233        C  0.48220765  0.86906276  0.23427129     0.08400
C234        C  0.49491840  0.89469095  0.20811111     0.02200
H235        H  0.45545582  0.82074508  0.21348923     0.09900
H236        H  0.50693590  0.91813997  0.21885673     0.08900
N237        N  0.44525981  0.81760528  0.03936885    -0.34900
N238        N  0.44966000  0.83520325  0.00507892    -0.27100
C239        C  0.43898988  0.81785440  0.96857755    -0.02300
C240        C  0.42744084  0.78811119  0.98050697     0.06300
C241        C  0.43170292  0.78864842  0.02543365     0.04400
H242        H  0.43958547  0.82631923  0.93584782     0.09500
H243        H  0.42536615  0.76943701  0.04651802     0.08300
N244        N  0.53966422  0.05774397  0.99652505    -0.26100
N245        N  0.52822195  0.04586324  0.95749085    -0.33900
C246        C  0.51619231  0.01576490  0.95858945     0.02300
C247        C  0.52024262  0.00825672  0.00044372     0.08300
C248        C  0.53516990  0.03539943  0.02374710    -0.04800
H249        H  0.50571755  0.00061818  0.93074367     0.09000
H250        H  0.54252217  0.03873850  0.05774257     0.10200
Cu251      Cu  0.53151279  0.07162727  0.90406436     0.44200
Cu252      Cu  0.56145498  0.10410226  0.00886871     0.42000
Cu253      Cu  0.57365529  0.15328292  0.91285700     0.43900
N254        N  0.54194578  0.10019412  0.85110576    -0.33400
N255        N  0.55797196  0.13023240  0.85312199    -0.27700
C256        C  0.56248491  0.14137301  0.81175454    -0.03800
C257        C  0.54855513  0.11697381  0.78275638     0.08400
C258        C  0.53578074  0.09136827  0.80897092     0.02200
H259        H  0.57552551  0.16531269  0.80342308     0.09900
H260        H  0.52369184  0.06790534  0.79827478     0.08900
N261        N  0.58600601  0.16856734  0.97750873    -0.34900
N262        N  0.58171037  0.15097283  0.01175463    -0.27100
C263        C  0.59238273  0.16830572  0.04826871    -0.02300
C264        C  0.60382339  0.19803481  0.03639470     0.06300
C265        C  0.59949738  0.19750796  0.99148613     0.04400
H266        H  0.59183017  0.15983413  0.08097720     0.09500
H267        H  0.60571450  0.21670955  0.97045117     0.08300
C268        C  0.67585023  0.33007057  0.14680510    -0.01300
N269        N  0.94897571  0.45616724  0.99730403    -0.26100
N270        N  0.95938649  0.45655588  0.95753595    -0.33900
C271        C  0.99004616  0.47270779  0.95832490     0.02300
C272        C  0.99950723  0.48308029  0.00074577     0.08300
C273        C  0.97288947  0.47215700  0.02471497    -0.04800
H274        H  0.00433009  0.47695063  0.92991149     0.09000
H275        H  0.97103098  0.47583971  0.05930335     0.10200
Cu276      Cu  0.93135994  0.43670537  0.90378198     0.44200
Cu277      Cu  0.90248939  0.43439925  0.01018635     0.42000
Cu278      Cu  0.85052074  0.40280928  0.91334484     0.43900
N279        N  0.90198040  0.42073514  0.85095169    -0.33400
N280        N  0.87227985  0.40873624  0.85318129    -0.27700
C281        C  0.86083114  0.40276075  0.81186048    -0.03800
C282        C  0.88470371  0.41153728  0.78270696     0.08400
C283        C  0.91028442  0.42271662  0.80877712     0.02200
H284        H  0.83716216  0.39336390  0.80368170     0.09900
H285        H  0.93354529  0.43242619  0.79798343     0.08900
N286        N  0.83656783  0.40012305  0.97847086    -0.34900
N287        N  0.85508625  0.41134863  0.01297119    -0.27100
C288        C  0.83826382  0.40531719  0.04969985    -0.02300
C289        C  0.80791284  0.38964523  0.03768474     0.06300
C290        C  0.80755160  0.38669446  0.99249620     0.04400
H291        H  0.84749885  0.41184061  0.08265499     0.09500
H292        H  0.78768799  0.37556603  0.97130845     0.08300
C293        C  0.70725125  0.34504050  0.13019617    -0.17300
C294        C  0.73187271  0.35637626  0.11264038     0.06800
C295        C  0.75936615  0.36865758  0.08867898     0.08600
C296        C  0.78190627  0.37849607  0.06619926    -0.18100
C297        C  0.65815697  0.29878649  0.12975668    -0.17300
C298        C  0.64461002  0.27425960  0.11179134     0.06800
C299        C  0.62975508  0.24683705  0.08742685     0.08600
C300        C  0.61769601  0.22426262  0.06478262    -0.18100
C301        C  0.41344726  0.76184896  0.95217506    -0.17300
C302        C  0.40127228  0.73924279  0.92958990     0.06800
C303        C  0.38629190  0.71178906  0.90529049     0.08600
C304        C  0.37267498  0.68724777  0.88736286    -0.18100
C305        C  0.24882446  0.60736406  0.95079431    -0.17300
C306        C  0.27139184  0.61725319  0.92835666     0.06800
C307        C  0.29892306  0.62960315  0.90446287     0.08600
C308        C  0.32356316  0.64098103  0.88694528    -0.18100
C309        C  0.40028646  0.60017365  0.95135110    -0.17300
C310        C  0.39074886  0.61223720  0.92897600     0.06800
C311        C  0.37899009  0.62675660  0.90504897     0.08600
C312        C  0.36841612  0.63962213  0.88736729    -0.18100
C313        C  0.63057457  0.38584599  0.06562942    -0.17300
C314        C  0.64010702  0.37379405  0.08804265     0.06800
C315        C  0.65184864  0.35927830  0.11202179     0.08600
C316        C  0.66240651  0.34640954  0.12974129    -0.18100
C317        C  0.61740842  0.22412086  0.45217185    -0.17300
C318        C  0.62956599  0.24671995  0.42957564     0.06800
C319        C  0.64452584  0.27417079  0.40527474     0.08600
C320        C  0.65812378  0.29871413  0.38735642    -0.18100
C321        C  0.67562687  0.32992681  0.32180631    -0.17300
C322        C  0.67556420  0.32990154  0.28193299     0.06800
C323        C  0.67557382  0.32991891  0.23520975     0.08600
C324        C  0.67565361  0.32997048  0.19533642    -0.18100
C325        C  0.63033662  0.38563711  0.45141136    -0.17300
C326        C  0.63989750  0.37360169  0.42902331     0.06800
C327        C  0.65169406  0.35912557  0.40507878     0.08600
C328        C  0.66230501  0.34629946  0.38738488    -0.18100
C329        C  0.78196399  0.37877352  0.45081612    -0.17300
C330        C  0.75938829  0.36884108  0.42838168     0.06800
C331        C  0.73184791  0.35643843  0.40449208     0.08600
C332        C  0.70720341  0.34502164  0.38697285    -0.18100
C333        C  0.41320719  0.76170766  0.56476261    -0.17300
C334        C  0.40112171  0.73912222  0.58738587     0.06800
C335        C  0.38623584  0.71169406  0.61174057     0.08600
C336        C  0.37266572  0.68716935  0.62971329    -0.18100
C337        C  0.36834981  0.63951238  0.62973230    -0.17300
C338        C  0.37887257  0.62660953  0.61201643     0.06800
C339        C  0.39057647  0.61205824  0.58803809     0.08600
C340        C  0.40008586  0.59998477  0.56562545    -0.18100
C341        C  0.35515057  0.65600705  0.69531834    -0.17300
C342        C  0.35522574  0.65606388  0.73519251     0.06800
C343        C  0.35522329  0.65608081  0.78191714     0.08600
C344        C  0.35514968  0.65605058  0.82179130    -0.18100
C345        C  0.32354332  0.64094664  0.63019029    -0.17300
C346        C  0.29891751  0.62962995  0.61265339     0.06800
C347        C  0.27141767  0.61737477  0.58871612     0.08600
C348        C  0.24887329  0.60756312  0.56625366    -0.18100
loop_ 
_geom_bond_atom_site_label_1 
_geom_bond_atom_site_label_2 
_geom_bond_distance 
_geom_bond_site_symmetry_2 
_ccdc_geom_bond_type 
N1            N2   1.320       .  A
N1            C5   1.347       .  A
N1           Cu9   2.082       .  S
N2            C3   1.343       .  A
N2           Cu8   2.056       .  S
C3            C4   1.380       .  A
C3            H6   1.082       .  S
C4            C5   1.387       .  A
C4           C53   1.472   1_455  S
C5            H7   1.082       .  S
Cu8          N11   2.056       .  S
Cu9          N19   2.083       .  S
Cu10         N12   2.084       .  S
Cu10         N18   2.086       .  S
N11          N12   1.321       .  A
N11          C15   1.338       .  A
N12          C13   1.351       .  A
C13          C14   1.388       .  A
C13          H16   1.082       .  S
C14          C15   1.379       .  A
C14         C209   1.472       .  S
C15          H17   1.082       .  S
N18          N19   1.326       .  A
N18          C22   1.346       .  A
N19          C20   1.347       .  A
C20          C21   1.379       .  A
C20          H23   1.082       .  S
C21          C22   1.380       .  A
C21         C348   1.440       .  S
C22          H24   1.082       .  S
C25         C336   1.469       .  S
C25         C337   1.470       .  S
C25         C341   1.474       .  S
C25         C345   1.469       .  S
N26          N27   1.320       .  A
N26          C30   1.347       .  A
N26         Cu34   2.082       .  S
N27          C28   1.344       .  A
N27         Cu33   2.060       .  S
C28          C29   1.381       .  A
C28          H31   1.082       .  S
C29          C30   1.387       .  A
C29          C77   1.473       .  S
C30          H32   1.082       .  S
Cu33         N36   2.060       .  S
Cu34         N44   2.083       .  S
Cu35         N37   2.085       .  S
Cu35         N43   2.086       .  S
N36          N37   1.321       .  A
N36          C40   1.338       .  A
N37          C38   1.351       .  A
C38          C39   1.388       .  A
C38          H41   1.082       .  S
C39          C40   1.380       .  A
C39         C184   1.473       .  S
C40          H42   1.082       .  S
N43          N44   1.326       .  A
N43          C47   1.346       .  A
N44          C45   1.347       .  A
C45          C46   1.379       .  A
C45          H48   1.082       .  S
C46          C47   1.380       .  A
C46         C340   1.440       .  S
C47          H49   1.082       .  S
N50          N51   1.320       .  A
N50          C54   1.346       .  A
N50         Cu58   2.082       .  S
N51          C52   1.343       .  A
N51         Cu57   2.056       .  S
C52          C53   1.380       .  A
C52          H55   1.082   1_655  S
C53          C54   1.387       .  A
C54          H56   1.082       .  S
Cu57         N60   2.056       .  S
Cu58         N68   2.083       .  S
Cu59         N61   2.084       .  S
Cu59         N67   2.085       .  S
N60          N61   1.321       .  A
N60          C64   1.338       .  A
N61          C62   1.351       .  A
C62          C63   1.388       .  A
C62          H65   1.082       .  S
C63          C64   1.379       .  A
C63         C282   1.472       .  S
C64          H66   1.082       .  S
N67          N68   1.326       .  A
N67          C71   1.346       .  A
N68          C69   1.347       .  A
C69          C70   1.379       .  A
C69          H72   1.082       .  S
C70          C71   1.380       .  A
C70         C329   1.440       .  S
C71          H73   1.082       .  S
N74          N75   1.320       .  A
N74          C78   1.347       .  A
N74         Cu82   2.082       .  S
N75          C76   1.344       .  A
N75         Cu81   2.060       .  S
C76          C77   1.381       .  A
C76          H79   1.082       .  S
C77          C78   1.387       .  A
C78          H80   1.082       .  S
Cu81         N84   2.060       .  S
Cu82         N92   2.083       .  S
Cu83         N85   2.084       .  S
Cu83         N91   2.086       .  S
N84          N85   1.321       .  A
N84          C88   1.339       .  A
N85          C86   1.351       .  A
C86          C87   1.388       .  A
C86          H89   1.082       .  S
C87          C88   1.380       .  A
C87         C160   1.473       .  S
C88          H90   1.082       .  S
N91          N92   1.326       .  A
N91          C95   1.346       .  A
N92          C93   1.347       .  A
C93          C94   1.379       .  A
C93          H96   1.082       .  S
C94          C95   1.380       .  A
C94         C325   1.440       .  S
C95          H97   1.082       .  S
C98         C320   1.469       .  S
C98         C321   1.473       .  S
C98         C328   1.470       .  S
C98         C332   1.469       .  S
N99         N100   1.320       .  A
N99         C103   1.346       .  A
N99        Cu107   2.080       .  S
N100        C101   1.344       .  A
N100       Cu106   2.058       .  S
C101        C102   1.381       .  A
C101        H104   1.082       .  S
C102        C103   1.387       .  A
C102        C126   1.471   1_565  S
C103        H105   1.082       .  S
Cu106       N109   2.058       .  S
Cu107       N117   2.081       .  S
Cu108       N110   2.083       .  S
Cu108       N116   2.085       .  S
N109        N110   1.321       .  A
N109        C113   1.339       .  A
N110        C111   1.351       .  A
C111        C112   1.387       .  A
C111        H114   1.082       .  S
C112        C113   1.380       .  A
C112        C233   1.472       .  S
C113        H115   1.082       .  S
N116        N117   1.326       .  A
N116        C120   1.346       .  A
N117        C118   1.346       .  A
C118        C119   1.379       .  A
C118        H121   1.082       .  S
C119        C120   1.380       .  A
C119        C333   1.439       .  S
C120        H122   1.082       .  S
N123        N124   1.320       .  A
N123        C127   1.346       .  A
N123       Cu131   2.080       .  S
N124        C125   1.344       .  A
N124       Cu130   2.058       .  S
C125        C126   1.381       .  A
C125        H128   1.082       .  S
C126        C127   1.387       .  A
C127        H129   1.082       .  S
Cu130       N133   2.058       .  S
Cu131       N141   2.081       .  S
Cu132       N134   2.083       .  S
Cu132       N140   2.085       .  S
N133        N134   1.321       .  A
N133        C137   1.339       .  A
N134        C135   1.351       .  A
C135        C136   1.387       .  A
C135        H138   1.082       .  S
C136        C137   1.380       .  A
C136        C257   1.472       .  S
C137        H139   1.082       .  S
N140        N141   1.326       .  A
N140        C144   1.346       .  A
N141        C142   1.346       .  A
C142        C143   1.379       .  A
C142        H145   1.082       .  S
C143        C144   1.380       .  A
C143        C317   1.439       .  S
C144        H146   1.082       .  S
N147        N148   1.320       .  A
N147        C151   1.347   1_556  A
N147       Cu155   2.082   1_556  S
N148        C149   1.344       .  A
N148       Cu154   2.060       .  S
C149        C150   1.381   1_556  A
C149        H152   1.082       .  S
C150        C151   1.387       .  A
C150        C174   1.473       .  S
C151        H153   1.082       .  S
Cu154       N157   2.060       .  S
Cu155       N165   2.083       .  S
Cu156       N158   2.085       .  S
Cu156       N164   2.086       .  S
N157        N158   1.321       .  A
N157        C161   1.338       .  A
N158        C159   1.351       .  A
C159        C160   1.388       .  A
C159        H162   1.082       .  S
C160        C161   1.380       .  A
C161        H163   1.082       .  S
N164        N165   1.326   1_556  A
N164        C168   1.346       .  A
N165        C166   1.347       .  A
C166        C167   1.379       .  A
C166        H169   1.082       .  S
C167        C168   1.380   1_554  A
C167        C313   1.440       .  S
C168        H170   1.082       .  S
N171        N172   1.320       .  A
N171        C175   1.347   1_554  A
N171       Cu179   2.082       .  S
N172        C173   1.344       .  A
N172       Cu178   2.060       .  S
C173        C174   1.381       .  A
C173        H176   1.082       .  S
C174        C175   1.387   1_554  A
C175        H177   1.082       .  S
Cu178       N181   2.060       .  S
Cu179       N189   2.084       .  S
Cu180       N182   2.085       .  S
Cu180       N188   2.086       .  S
N181        N182   1.321       .  A
N181        C185   1.338       .  A
N182        C183   1.351       .  A
C183        C184   1.388       .  A
C183        H186   1.082       .  S
C184        C185   1.380       .  A
C185        H187   1.082       .  S
N188        N189   1.326       .  A
N188        C192   1.346       .  A
N189        C190   1.347   1_554  A
C190        C191   1.379       .  A
C190        H193   1.082       .  S
C191        C192   1.380   1_556  A
C191        C309   1.440       .  S
C192        H194   1.082       .  S
C195        C304   1.469       .  S
C195        C308   1.469       .  S
C195        C312   1.470       .  S
C195        C344   1.474       .  S
N196        N197   1.320       .  A
N196        C200   1.347   1_554  A
N196       Cu204   2.082       .  S
N197        C198   1.343       .  A
N197       Cu203   2.056       .  S
C198        C199   1.380       .  A
C198        H201   1.082       .  S
C199        C200   1.387   1_554  A
C199        C272   1.472   1_455  S
C200        H202   1.082       .  S
Cu203       N206   2.056       .  S
Cu204       N214   2.083       .  S
Cu205       N207   2.083       .  S
Cu205       N213   2.085       .  S
N206        N207   1.321       .  A
N206        C210   1.338       .  A
N207        C208   1.351       .  A
C208        C209   1.388       .  A
C208        H211   1.082       .  S
C209        C210   1.379       .  A
C210        H212   1.082       .  S
N213        N214   1.326       .  A
N213        C217   1.346       .  A
N214        C215   1.347   1_554  A
C215        C216   1.379       .  A
C215        H218   1.082       .  S
C216        C217   1.380   1_556  A
C216        C305   1.440       .  S
C217        H219   1.082       .  S
N220        N221   1.320       .  A
N220        C224   1.346   1_554  A
N220       Cu228   2.080       .  S
N221        C222   1.344       .  A
N221       Cu227   2.058       .  S
C222        C223   1.381       .  A
C222        H225   1.082       .  S
C223        C224   1.387   1_554  A
C223        C247   1.471   1_565  S
C224        H226   1.082       .  S
Cu227       N230   2.058       .  S
Cu228       N238   2.081       .  S
Cu229       N231   2.083       .  S
Cu229       N237   2.085       .  S
N230        N231   1.321       .  A
N230        C234   1.339       .  A
N231        C232   1.351       .  A
C232        C233   1.387       .  A
C232        H235   1.082       .  S
C233        C234   1.380       .  A
C234        H236   1.082       .  S
N237        N238   1.326       .  A
N237        C241   1.346       .  A
N238        C239   1.346   1_554  A
C239        C240   1.379       .  A
C239        H242   1.082       .  S
C240        C241   1.380   1_556  A
C240        C301   1.439       .  S
C241        H243   1.082       .  S
N244        N245   1.320       .  A
N244        C248   1.346   1_556  A
N244       Cu252   2.080   1_556  S
N245        C246   1.344       .  A
N245       Cu251   2.058       .  S
C246        C247   1.381   1_556  A
C246        H249   1.082       .  S
C247        C248   1.387       .  A
C248        H250   1.082       .  S
Cu251       N254   2.058       .  S
Cu252       N262   2.081       .  S
Cu253       N255   2.083       .  S
Cu253       N261   2.085       .  S
N254        N255   1.321       .  A
N254        C258   1.339       .  A
N255        C256   1.351       .  A
C256        C257   1.387       .  A
C256        H259   1.082       .  S
C257        C258   1.380       .  A
C258        H260   1.082       .  S
N261        N262   1.326   1_556  A
N261        C265   1.346       .  A
N262        C263   1.346       .  A
C263        C264   1.379       .  A
C263        H266   1.082       .  S
C264        C265   1.380   1_554  A
C264        C300   1.439       .  S
C265        H267   1.082       .  S
C268        C293   1.469       .  S
C268        C297   1.469       .  S
C268        C316   1.470       .  S
C268        C324   1.474       .  S
N269        N270   1.320       .  A
N269        C273   1.347   1_556  A
N269       Cu277   2.082   1_556  S
N270        C271   1.343       .  A
N270       Cu276   2.056       .  S
C271        C272   1.380   1_556  A
C271        H274   1.082   1_655  S
C272        C273   1.387       .  A
C273        H275   1.082       .  S
Cu276       N279   2.056       .  S
Cu277       N287   2.083       .  S
Cu278       N280   2.084       .  S
Cu278       N286   2.086       .  S
N279        N280   1.321       .  A
N279        C283   1.338       .  A
N280        C281   1.351       .  A
C281        C282   1.388       .  A
C281        H284   1.082       .  S
C282        C283   1.379       .  A
C283        H285   1.082       .  S
N286        N287   1.326   1_556  A
N286        C290   1.346       .  A
N287        C288   1.347       .  A
C288        C289   1.379       .  A
C288        H291   1.082       .  S
C289        C290   1.380   1_554  A
C289        C296   1.440       .  S
C290        H292   1.082       .  S
C293        C294   1.208       .  T
C294        C295   1.414       .  S
C295        C296   1.207       .  T
C297        C298   1.208       .  T
C298        C299   1.414       .  S
C299        C300   1.207       .  T
C301        C302   1.207       .  T
C302        C303   1.414       .  S
C303        C304   1.208       .  T
C305        C306   1.207       .  T
C306        C307   1.414       .  S
C307        C308   1.208       .  T
C309        C310   1.207       .  T
C310        C311   1.414       .  S
C311        C312   1.208       .  T
C313        C314   1.207       .  T
C314        C315   1.414       .  S
C315        C316   1.208       .  T
C317        C318   1.207       .  T
C318        C319   1.414       .  S
C319        C320   1.208       .  T
C321        C322   1.211       .  T
C322        C323   1.419       .  S
C323        C324   1.211       .  T
C325        C326   1.207       .  T
C326        C327   1.414       .  S
C327        C328   1.208       .  T
C329        C330   1.207       .  T
C330        C331   1.414       .  S
C331        C332   1.208       .  T
C333        C334   1.207       .  T
C334        C335   1.414       .  S
C335        C336   1.208       .  T
C337        C338   1.208       .  T
C338        C339   1.415       .  S
C339        C340   1.207       .  T
C341        C342   1.211       .  T
C342        C343   1.419       .  S
C343        C344   1.211       .  T
C345        C346   1.208       .  T
C346        C347   1.414       .  S
C347        C348   1.207       .  T
