geometry optimzed in LAMMPS
_audit_creation_date              2020-12-01 
_audit_creation_method            'lammps2cif' 
_symmetry_space_group_name_H-M    'P1' 
_symmetry_Int_Tables_number       1 
_symmetry_cell_setting            triclinic 
loop_ 
_symmetry_equiv_pos_as_xyz 
  x,y,z 
_cell_length_a                    26.17797774 
_cell_length_b                    26.282793767446016 
_cell_length_c                    25.647707846107807 
_cell_angle_alpha                 87.18632458676262 
_cell_angle_beta                  89.80614170466916 
_cell_angle_gamma                 120.05007403908621 
loop_ 
_atom_site_label 
_atom_site_type_symbol 
_atom_site_fract_x 
_atom_site_fract_y 
_atom_site_fract_z 
_atom_site_charge 
C1          C  0.67536703  0.34466002  0.83342857    -0.00400
N2          N  0.12981184  0.51909024  0.71011402    -0.25200
N3          N  0.10050255  0.51476049  0.75386033    -0.33000
C4          C  0.14012619  0.54575947  0.78990298     0.03200
C5          C  0.19639212  0.57050204  0.76711389     0.09200
C6          C  0.18784865  0.55263523  0.71687291    -0.03900
H7          H  0.12872386  0.55159025  0.82886689     0.09900
H8          H  0.22151883  0.56458715  0.68662540     0.11100
Cu9        Cu  0.00784542  0.47028798  0.76036954     0.44200
Cu10       Cu  0.09447555  0.48537332  0.63987821     0.42000
Cu11       Cu  0.94244764  0.41565068  0.63472909     0.43900
N12         N  0.91668870  0.42618676  0.74773580    -0.32500
N13         N  0.89485898  0.40759070  0.70154034    -0.26800
C14         C  0.83608360  0.38354185  0.70403153    -0.02900
C15         C  0.81919219  0.38642895  0.75408038     0.09300
C16         C  0.87134456  0.41374037  0.78117855     0.03100
H17         H  0.80766472  0.36584235  0.67130347     0.10800
H18         H  0.87618728  0.42496399  0.82158200     0.09800
N19         N  0.99436294  0.42979181  0.56933675    -0.34000
N20         N  0.05234118  0.45646261  0.57095615    -0.26200
C21         C  0.07508297  0.46412951  0.52223308    -0.01400
C22         C  0.02882561  0.44091606  0.48841154     0.07200
C23         C  0.97812325  0.41939165  0.51970139     0.05300
H24         H  0.12177196  0.48685187  0.51201246     0.10400
H25         H  0.93298747  0.40007658  0.50752822     0.09200
C26         C  0.32723228  0.67109996  0.85275684    -0.00400
N27         N  0.58169570  0.48100713  0.72734737    -0.25200
N28         N  0.55376733  0.48268377  0.76979101    -0.33000
C29         C  0.55963123  0.44999245  0.80881052     0.03200
C30         C  0.59358859  0.42772898  0.79014384     0.09200
C31         C  0.60684928  0.44823184  0.73847106    -0.03900
H32         H  0.54069998  0.44309111  0.84786750     0.09900
H33         H  0.63091287  0.43811526  0.71035815     0.11100
Cu34       Cu  0.51015697  0.53030587  0.77362574     0.44200
Cu35       Cu  0.58012970  0.51690731  0.65413487     0.42000
Cu36       Cu  0.51817333  0.60890789  0.65101366     0.43900
N37         N  0.48010325  0.58986500  0.76470649    -0.32500
N38         N  0.48662957  0.62046547  0.72024616    -0.26800
C39         C  0.46361485  0.65538376  0.72595492    -0.02900
C40         C  0.44059870  0.64598848  0.77608780     0.09300
C41         C  0.45178128  0.60417444  0.79996339     0.03100
H42         H  0.46117480  0.68344482  0.69493683     0.10800
H43         H  0.43960056  0.58493503  0.83947211     0.09800
N44         N  0.53892252  0.58223477  0.58410196    -0.34000
N45         N  0.56267016  0.54822980  0.58489767    -0.26200
C46         C  0.56775156  0.53533232  0.53572556    -0.01400
C47         C  0.54578995  0.56259557  0.50259209     0.07200
C48         C  0.52776591  0.59173125  0.53462417     0.05300
H49         H  0.58401907  0.50648376  0.52534166     0.10400
H50         H  0.50675220  0.61680627  0.52299612     0.09200
N51         N  0.43230378  0.89616197  0.73081579    -0.25200
N52         N  0.45739156  0.92846385  0.77116543    -0.33000
C53         C  0.44675320  0.89254082  0.81411106     0.03200
C54         C  0.41220273  0.83504527  0.80059907     0.09200
C55         C  0.40394627  0.83892804  0.74750301    -0.03900
H56         H  0.46266331  0.90727363  0.85248805     0.09900
H57         H  0.38088494  0.80271713  0.72243031     0.11100
Cu58       Cu  0.50199087  0.02001167  0.76785497     0.44200
Cu59       Cu  0.44032229  0.92993973  0.65367315     0.42000
Cu60       Cu  0.49959697  0.08488966  0.64138983     0.43900
N61         N  0.53241670  0.10935250  0.75346165    -0.32500
N62         N  0.52884987  0.13192133  0.70734811    -0.26800
C63         C  0.55104314  0.19010023  0.70979675    -0.02900
C64         C  0.57032151  0.20532091  0.75958471     0.09300
C65         C  0.55772375  0.15304739  0.78654059     0.03100
H66         H  0.55498133  0.21954936  0.67705405     0.10800
H67         H  0.56657564  0.14713605  0.82688335     0.09800
N68         N  0.47707692  0.03378605  0.57776649    -0.34000
N69         N  0.45598599  0.97632901  0.58126557    -0.26200
C70         C  0.44854622  0.95692474  0.53255317    -0.01400
C71         C  0.46580785  0.00486035  0.49710896     0.07200
C72         C  0.48343446  0.05256011  0.52730349     0.05300
H73         H  0.43225857  0.91160394  0.52377626     0.10400
H74         H  0.50067033  0.09797960  0.51354226     0.09200
C75         C  0.65678676  0.33559714  0.99395618    -0.00400
N76         N  0.86352068  0.38386939  0.13179933    -0.25200
N77         N  0.88786738  0.40380867  0.08458894    -0.33000
C78         C  0.84468893  0.39262690  0.05075196     0.03200
C79         C  0.79107744  0.36452691  0.07866509     0.09200
C80         C  0.80485280  0.35964816  0.12962254    -0.03900
H81         H  0.85218457  0.40602950  0.00960872     0.09900
H82         H  0.77463492  0.34187989  0.16317969     0.11100
Cu83       Cu  0.97907806  0.44985317  0.07100603     0.44200
Cu84       Cu  0.90925649  0.39549123  0.19872026     0.42000
Cu85       Cu  0.06352120  0.49222667  0.19177254     0.43900
N86         N  0.07085257  0.50009869  0.07312170    -0.32500
N87         N  0.10014680  0.51776300  0.11671563    -0.26800
C88         C  0.15804213  0.55122243  0.10472711    -0.02900
C89         C  0.16590622  0.55432220  0.05116279     0.09300
C90         C  0.10988857  0.52101859  0.03225908     0.03100
H91         H  0.19213118  0.57006796  0.13316879     0.10800
H92         H  0.09829667  0.51296172  0.99184342     0.09800
N93         N  0.01725665  0.45341122  0.26165537    -0.34000
N94         N  0.95967263  0.41706835  0.26340063    -0.26200
C95         C  0.94083069  0.39914735  0.31309894    -0.01400
C96         C  0.98892143  0.42520008  0.34438771     0.07200
C97         C  0.03698615  0.45947791  0.31061978     0.05300
H98         H  0.89523937  0.37000664  0.32555470     0.10400
H99         H  0.08249172  0.48744140  0.32064655     0.09200
C100        C  0.33042357  0.66277809  0.01428311    -0.00400
N101        N  0.43646368  0.54569601  0.15026292    -0.25200
N102        N  0.44997247  0.53854906  0.10247162    -0.33000
C103        C  0.42296656  0.55727657  0.06811382     0.03200
C104        C  0.39114200  0.57683607  0.09615079     0.09200
C105        C  0.40063752  0.56839000  0.14783468    -0.03900
H106        H  0.42823823  0.55888886  0.02610984     0.09900
H107        H  0.38538739  0.58114246  0.18136677     0.11100
Cu108      Cu  0.50913305  0.50836089  0.08848909     0.44200
Cu109      Cu  0.47356640  0.53432563  0.21731151     0.42000
Cu110      Cu  0.59540715  0.51204472  0.20346495     0.43900
N111        N  0.57305150  0.48232492  0.08970382    -0.32500
N112        N  0.60604638  0.48761352  0.13040605    -0.26800
C113        C  0.64294096  0.46788358  0.11898932    -0.02900
C114        C  0.63219905  0.44788361  0.06932076     0.09300
C115        C  0.58753968  0.45757817  0.05166186     0.03100
H116        H  0.67328089  0.46530417  0.14607956     0.10800
H117        H  0.56681514  0.44703017  0.01426404     0.09800
N118        N  0.56745822  0.52422618  0.27504422    -0.34000
N119        N  0.52177615  0.53220575  0.27979579    -0.26200
C120        C  0.51339387  0.53853278  0.33018474    -0.01400
C121        C  0.55588052  0.53400409  0.35872286     0.07200
C122        C  0.58919597  0.52459226  0.32258578     0.05300
H123        H  0.47851913  0.54526470  0.34470879     0.10400
H124        H  0.62654138  0.51863552  0.33025569     0.09200
N125        N  0.42343665  0.88021786  0.12288449    -0.25200
N126        N  0.42787981  0.91326409  0.08048701    -0.33000
C127        C  0.40633844  0.87853451  0.03992498     0.03200
C128        C  0.38902268  0.82144273  0.05737257     0.09200
C129        C  0.40040029  0.82408234  0.11005249    -0.03900
H130        H  0.40358714  0.89377197  0.00063559     0.09900
H131        H  0.39011084  0.78744431  0.13759358     0.11100
Cu132      Cu  0.46475742  0.00437921  0.07829041     0.44200
Cu133      Cu  0.44188413  0.90943890  0.19813972     0.42000
Cu134      Cu  0.49716177  0.06315048  0.20509306     0.43900
N135        N  0.50891594  0.09434866  0.08928060    -0.32500
N136        N  0.51948629  0.11500965  0.13637584    -0.26800
C137        C  0.54885008  0.17404048  0.13193372    -0.02900
C138        C  0.55787038  0.19181684  0.07961735     0.09300
C139        C  0.53212781  0.14015597  0.05336856     0.03100
H140        H  0.56392732  0.20209548  0.16456560     0.10800
H141        H  0.53053174  0.13603395  0.01157316     0.09800
N142        N  0.47568916  0.00646585  0.27057332    -0.34000
N143        N  0.45561844  0.94944564  0.26873215    -0.26200
C144        C  0.44538394  0.92520761  0.31793752    -0.01400
C145        C  0.45971476  0.96925193  0.35225616     0.07200
C146        C  0.47892639  0.02023834  0.32061496     0.05300
H147        H  0.42828870  0.87890832  0.32800699     0.10400
H148        H  0.49409747  0.06429523  0.33259590     0.09200
C149        C  0.35668344  0.62357958  0.02816782    -0.14300
C150        C  0.36001022  0.60811456  0.07834513    -0.29500
H151        H  0.37465649  0.60955351  0.99734892     0.14700
H152        H  0.34144303  0.62212485  0.10867925     0.15300
C153        C  0.35871384  0.76802139  0.02774407    -0.14300
C154        C  0.36786676  0.72243308  0.03725147    -0.29500
H155        H  0.32759077  0.76551353  0.99866290     0.14700
H156        H  0.40205193  0.72791336  0.06419027     0.15300
C157        C  0.26792306  0.63446157  0.03727378    -0.14300
C158        C  0.22274005  0.58391574  0.02152930    -0.29500
H159        H  0.26000711  0.65500168  0.06978944     0.14700
H160        H  0.22791132  0.56384710  0.98738390     0.15300
C161        C  0.61414353  0.27099390  0.01037683    -0.14300
C162        C  0.59079743  0.25375155  0.05923795    -0.29500
H163        H  0.60535399  0.23760470  0.98277409     0.14700
H164        H  0.59909691  0.28671780  0.08701254     0.15300
C165        C  0.66094273  0.41868510  0.04458082    -0.14300
C166        C  0.63281672  0.37452549  0.01231650    -0.29500
H167        H  0.70446016  0.43052643  0.05798742     0.14700
H168        H  0.58858111  0.36308246  0.00069174     0.15300
C169        C  0.73136494  0.34749109  0.06153649    -0.14300
C170        C  0.71888661  0.35300080  0.01162352    -0.29500
H171        H  0.69707010  0.33137002  0.09177732     0.14700
H172        H  0.75461430  0.36944235  0.98233396     0.15300
C173        C  0.45504765  0.96250418  0.41013779    -0.14300
C174        C  0.46787204  0.00827009  0.43939049    -0.29500
H175        H  0.44120828  0.91938579  0.42876874     0.14700
H176        H  0.48162329  0.05122347  0.42053372     0.15300
C177        C  0.53834865  0.55903121  0.44574338    -0.14300
C178        C  0.56418812  0.53745629  0.41555662    -0.29500
H179        H  0.51169692  0.57595078  0.42829831     0.14700
H180        H  0.59330685  0.52331733  0.43249394     0.15300
C181        C  0.32992138  0.67084376  0.95694635    -0.11100
C182        C  0.32813631  0.67383352  0.90996342    -0.12700
C183        C  0.40694256  0.67256311  0.79552454    -0.14300
C184        C  0.36980865  0.65016285  0.83750564    -0.29500
H185        H  0.40900944  0.70841508  0.77104809     0.14700
H186        H  0.36518440  0.61118835  0.85879851     0.15300
C187        C  0.39346412  0.78110920  0.83451555    -0.14300
C188        C  0.34293432  0.73097479  0.82657875    -0.29500
H189        H  0.42254817  0.78188116  0.86494191     0.14700
H190        H  0.31330733  0.73270014  0.79781588     0.15300
C191        C  0.03389647  0.44454993  0.43095607    -0.14300
C192        C  0.98606092  0.41893947  0.40171812    -0.29500
H193        H  0.07766801  0.46963471  0.41261473     0.14700
H194        H  0.94249117  0.39278665  0.42019936     0.15300
C195        C  0.25457647  0.61216310  0.78696639    -0.14300
C196        C  0.26546364  0.62543193  0.83717607    -0.29500
H197        H  0.29086204  0.63332780  0.75821279     0.14700
H198        H  0.22982790  0.60362353  0.86653810     0.15300
C199        C  0.66787070  0.34444548  0.89015979    -0.11100
C200        C  0.66069056  0.34136405  0.93677595    -0.12700
C201        C  0.63692533  0.28144471  0.81794593    -0.14300
C202        C  0.60130679  0.26590614  0.77693688    -0.29500
H203        H  0.64251844  0.24786448  0.83927766     0.14700
H204        H  0.59828138  0.29904058  0.75240639     0.15300
C205        C  0.60878049  0.38726333  0.81830914    -0.14300
C206        C  0.65935710  0.38787791  0.80717961    -0.29500
H207        H  0.57860137  0.35721641  0.84907145     0.14700
H208        H  0.69039120  0.42104342  0.77852986     0.15300
C209        C  0.73966668  0.36448584  0.82024454    -0.14300
C210        C  0.75770562  0.36643578  0.77070681    -0.29500
H211        H  0.77152189  0.37752153  0.85106298     0.14700
H212        H  0.72532523  0.35241527  0.74032619     0.15300
loop_ 
_geom_bond_atom_site_label_1 
_geom_bond_atom_site_label_2 
_geom_bond_distance 
_geom_bond_site_symmetry_2 
_ccdc_geom_bond_type 
C1          C199   1.467       .  S
C1          C201   1.524       .  S
C1          C206   1.524       .  S
C1          C209   1.523       .  S
N2            N3   1.325       .  A
N2            C6   1.338       .  A
N2          Cu10   2.057       .  S
N3            C4   1.352       .  A
N3           Cu9   2.101       .  S
C4            C5   1.390       .  A
C4            H7   1.082       .  S
C5            C6   1.374       .  A
C5          C195   1.472       .  S
C6            H8   1.082       .  S
Cu9          N12   2.101   1_455  S
Cu10         N20   2.055       .  S
Cu11         N13   2.054       .  S
Cu11         N19   2.053       .  S
N12          N13   1.323       .  A
N12          C16   1.352       .  A
N13          C14   1.339       .  A
C14          C15   1.374       .  A
C14          H17   1.082       .  S
C15          C16   1.391       .  A
C15         C210   1.475       .  S
C16          H18   1.082       .  S
N19          N20   1.317   1_655  A
N19          C23   1.341       .  A
N20          C21   1.344       .  A
C21          C22   1.382       .  A
C21          H24   1.082       .  S
C22          C23   1.386   1_455  A
C22         C191   1.473       .  S
C23          H25   1.081       .  S
C26         C182   1.472       .  S
C26         C184   1.527       .  S
C26         C188   1.531       .  S
C26         C196   1.524       .  S
N27          N28   1.324       .  A
N27          C31   1.342       .  A
N27         Cu35   2.070       .  S
N28          C29   1.346       .  A
N28         Cu34   2.079       .  S
C29          C30   1.381       .  A
C29          H32   1.082       .  S
C30          C31   1.381       .  A
C30         C205   1.470       .  S
C31          H33   1.082       .  S
Cu34         N37   2.079       .  S
Cu35         N45   2.069       .  S
Cu36         N38   2.055       .  S
Cu36         N44   2.055       .  S
N37          N38   1.322       .  A
N37          C41   1.348       .  A
N38          C39   1.339       .  A
C39          C40   1.375       .  A
C39          H42   1.082       .  S
C40          C41   1.388       .  A
C40         C183   1.470       .  S
C41          H43   1.082       .  S
N44          N45   1.319       .  A
N44          C48   1.343       .  A
N45          C46   1.345       .  A
C46          C47   1.386       .  A
C46          H49   1.081       .  S
C47          C48   1.380       .  A
C47         C177   1.473       .  S
C48          H50   1.082       .  S
N51          N52   1.325       .  A
N51          C55   1.347       .  A
N51         Cu59   2.094       .  S
N52          C53   1.347       .  A
N52         Cu58   2.080   1_565  S
C53          C54   1.381       .  A
C53          H56   1.082       .  S
C54          C55   1.386       .  A
C54         C187   1.479       .  S
C55          H57   1.082       .  S
Cu58         N61   2.079       .  S
Cu59         N69   2.092       .  S
Cu60         N62   2.060       .  S
Cu60         N68   2.060       .  S
N61          N62   1.322       .  A
N61          C65   1.347       .  A
N62          C63   1.341       .  A
C63          C64   1.378       .  A
C63          H66   1.082       .  S
C64          C65   1.388       .  A
C64         C202   1.473       .  S
C65          H67   1.082       .  S
N68          N69   1.321   1_545  A
N68          C72   1.342       .  A
N69          C70   1.350       .  A
C70          C71   1.390   1_565  A
C70          H73   1.082       .  S
C71          C72   1.379       .  A
C71         C174   1.478       .  S
C72          H74   1.082       .  S
C75         C200   1.465       .  S
C75         C161   1.528   1_556  S
C75         C166   1.533   1_556  S
C75         C170   1.529   1_556  S
N76          N77   1.321       .  A
N76          C80   1.339       .  A
N76         Cu84   2.042       .  S
N77          C78   1.348       .  A
N77         Cu83   2.085       .  S
C78          C79   1.390       .  A
C78          H81   1.081       .  S
C79          C80   1.374       .  A
C79         C169   1.470       .  S
C80          H82   1.082       .  S
Cu83         N86   2.085   1_655  S
Cu84         N94   2.043       .  S
Cu85         N87   2.072       .  S
Cu85         N93   2.071       .  S
N86          N87   1.324       .  A
N86          C90   1.348       .  A
N87          C88   1.342       .  A
C88          C89   1.381       .  A
C88          H91   1.082       .  S
C89          C90   1.383       .  A
C89         C158   1.474       .  S
C90          H92   1.082   1_554  S
N93          N94   1.319   1_455  A
N93          C97   1.346       .  A
N94          C95   1.339       .  A
C95          C96   1.377       .  A
C95          H98   1.082       .  S
C96          C97   1.388   1_655  A
C96         C192   1.469       .  S
C97          H99   1.081       .  S
C100        C181   1.476   1_554  S
C100        C149   1.528       .  S
C100        C154   1.524       .  S
C100        C157   1.520       .  S
N101        N102   1.322       .  A
N101        C105   1.340       .  A
N101       Cu109   2.059       .  S
N102        C103   1.352       .  A
N102       Cu108   2.100       .  S
C103        C104   1.392       .  A
C103        H106   1.082       .  S
C104        C105   1.377       .  A
C104        C150   1.478       .  S
C105        H107   1.082       .  S
Cu108       N111   2.101       .  S
Cu109       N119   2.059       .  S
Cu110       N112   2.072       .  S
Cu110       N118   2.072       .  S
N111        N112   1.325       .  A
N111        C115   1.351       .  A
N112        C113   1.342       .  A
C113        C114   1.378       .  A
C113        H116   1.082       .  S
C114        C115   1.388       .  A
C114        C165   1.477       .  S
C115        H117   1.082       .  S
N118        N119   1.320       .  A
N118        C122   1.346       .  A
N119        C120   1.342       .  A
C120        C121   1.384       .  A
C120        H123   1.081       .  S
C121        C122   1.383       .  A
C121        C178   1.475       .  S
C122        H124   1.082       .  S
N125        N126   1.325       .  A
N125        C129   1.344       .  A
N125       Cu133   2.081       .  S
N126        C127   1.347       .  A
N126       Cu132   2.084   1_565  S
C127        C128   1.382       .  A
C127        H130   1.082       .  S
C128        C129   1.382       .  A
C128        C153   1.474       .  S
C129        H131   1.082       .  S
Cu132       N135   2.083       .  S
Cu133       N143   2.080       .  S
Cu134       N136   2.065       .  S
Cu134       N142   2.065       .  S
N135        N136   1.322       .  A
N135        C139   1.350       .  A
N136        C137   1.341       .  A
C137        C138   1.379       .  A
C137        H140   1.082       .  S
C138        C139   1.388       .  A
C138        C162   1.474       .  S
C139        H141   1.082       .  S
N142        N143   1.320   1_545  A
N142        C146   1.342       .  A
N143        C144   1.348       .  A
C144        C145   1.387       .  A
C144        H147   1.082       .  S
C145        C146   1.387   1_565  A
C145        C173   1.484       .  S
C146        H148   1.081       .  S
C149        C150   1.347       .  D
C149        H151   1.087   1_554  S
C150        H152   1.087       .  S
C153        C154   1.346       .  D
C153        H155   1.086   1_554  S
C154        H156   1.088       .  S
C157        C158   1.345       .  D
C157        H159   1.089       .  S
C158        H160   1.086   1_554  S
C161        C162   1.346       .  D
C161        H163   1.088   1_554  S
C162        H164   1.086       .  S
C165        C166   1.348       .  D
C165        H167   1.082       .  S
C166        H168   1.087       .  S
C169        C170   1.341       .  D
C169        H171   1.081       .  S
C170        H172   1.088   1_554  S
C173        C174   1.345   1_565  D
C173        H175   1.086       .  S
C174        H176   1.085       .  S
C177        C178   1.342       .  D
C177        H179   1.085       .  S
C178        H180   1.085       .  S
C181        C182   1.206       .  T
C183        C184   1.345       .  D
C183        H185   1.084       .  S
C184        H186   1.087       .  S
C187        C188   1.345       .  D
C187        H189   1.086       .  S
C188        H190   1.088       .  S
C191        C192   1.340   1_455  D
C191        H193   1.085       .  S
C192        H194   1.085       .  S
C195        C196   1.345       .  D
C195        H197   1.087       .  S
C196        H198   1.088       .  S
C199        C200   1.202       .  T
C201        C202   1.345       .  D
C201        H203   1.087       .  S
C202        H204   1.084       .  S
C205        C206   1.345       .  D
C205        H207   1.086       .  S
C206        H208   1.088       .  S
C209        C210   1.344       .  D
C209        H211   1.087       .  S
C210        H212   1.087       .  S
