geometry optimzed in LAMMPS
_audit_creation_date              2020-11-30 
_audit_creation_method            'lammps2cif' 
_symmetry_space_group_name_H-M    'P1' 
_symmetry_Int_Tables_number       1 
_symmetry_cell_setting            triclinic 
loop_ 
_symmetry_equiv_pos_as_xyz 
  x,y,z 
_cell_length_a                    22.82423157668716 
_cell_length_b                    22.82063651409003 
_cell_length_c                    22.742672810231284 
_cell_angle_alpha                 90.276106134426 
_cell_angle_beta                  89.3463597960954 
_cell_angle_gamma                 90.53266759978858 
loop_ 
_atom_site_label 
_atom_site_type_symbol 
_atom_site_fract_x 
_atom_site_fract_y 
_atom_site_fract_z 
_atom_site_charge 
O1          O  0.43971456  0.44176335  0.64052577    -0.69230
O2          O  0.55805056  0.56147686  0.63956547    -0.69260
O3          O  0.55764932  0.44323486  0.63943177    -0.69320
O4          O  0.44018573  0.56003212  0.64019094    -0.69370
O5          O  0.43927366  0.56112240  0.73844702    -0.69300
O6          O  0.55776048  0.44319238  0.73769231    -0.69280
O7          O  0.55810101  0.56226269  0.73775550    -0.69250
O8          O  0.43906443  0.44183538  0.73872156    -0.69320
Ni9        Ni  0.49889959  0.50159935  0.63649552     1.25410
Ni10       Ni  0.49851239  0.50212168  0.74175553     1.25360
C11         C  0.42028582  0.42193037  0.68962933     0.92950
C12         C  0.57727479  0.58165007  0.68835805     0.92880
C13         C  0.57673025  0.42399872  0.68816636     0.92910
C14         C  0.42083464  0.57996497  0.68916186     0.93080
O15         O  0.69913939  0.44050897  0.38695847    -0.69230
O16         O  0.69995085  0.55940171  0.50531185    -0.69260
O17         O  0.69827117  0.55841898  0.38674583    -0.69320
O18         O  0.70074239  0.44102525  0.50587782    -0.69370
O19         O  0.79857845  0.44212311  0.50406297    -0.69300
O20         O  0.79611158  0.56029492  0.38403630    -0.69280
O21         O  0.79781656  0.56127023  0.50348447    -0.69250
O22         O  0.79700826  0.44158255  0.38438111    -0.69320
Ni23       Ni  0.69609581  0.49973102  0.44639030     1.25410
Ni24       Ni  0.80094167  0.50132727  0.44397320     1.25360
C25         C  0.74779112  0.42214752  0.36580031     0.92950
C26         C  0.74881415  0.58006299  0.52347246     0.92880
C27         C  0.74663281  0.57833431  0.36567751     0.92910
C28         C  0.74982136  0.42238931  0.52457046     0.93080
O29         O  0.56138253  0.70003296  0.37257982    -0.69230
O30         O  0.44250831  0.69698175  0.49227195    -0.69260
O31         O  0.44260360  0.69923466  0.37373925    -0.69320
O32         O  0.56051177  0.69759256  0.49119935    -0.69370
O33         O  0.56120400  0.79544791  0.49380881    -0.69300
O34         O  0.44232562  0.79707783  0.37545308    -0.69280
O35         O  0.44233301  0.79482135  0.49475098    -0.69250
O36         O  0.56199921  0.79785720  0.37423858    -0.69320
Ni37       Ni  0.50176094  0.69505443  0.43224239     1.25410
Ni38       Ni  0.50200881  0.79987341  0.43453638     1.25360
C39         C  0.58157936  0.74921732  0.35414491     0.92950
C40         C  0.42318305  0.74526284  0.51328278     0.92880
C41         C  0.42257778  0.74812281  0.35592348     0.92910
C42         C  0.57977231  0.74607086  0.51206989     0.93080
O43         O  0.20459127  0.43626739  0.38647044    -0.69230
O44         O  0.20377629  0.55619238  0.50614938    -0.69260
O45         O  0.20514717  0.55546090  0.38684748    -0.69320
O46         O  0.20342171  0.43659926  0.50587313    -0.69370
O47         O  0.30128824  0.43770987  0.50527701    -0.69300
O48         O  0.30301669  0.55550568  0.38722680    -0.69280
O49         O  0.30159761  0.55624929  0.50575346    -0.69250
O50         O  0.30241369  0.43711802  0.38683888    -0.69320
Ni51       Ni  0.20065463  0.49611814  0.44638071     1.25410
Ni52       Ni  0.30548589  0.49667481  0.44630770     1.25360
C53         C  0.25380200  0.41704229  0.36729629     0.93110
C54         C  0.25273593  0.57607890  0.52511852     0.92880
C55         C  0.25459452  0.57480900  0.36781026     0.92910
C56         C  0.25235559  0.41748591  0.52452088     0.93080
O57         O  0.56816776  0.20194134  0.37967203    -0.69230
O58         O  0.44841668  0.20538659  0.49970372    -0.69260
O59         O  0.44896637  0.20456634  0.38066046    -0.69320
O60         O  0.56719964  0.20288197  0.49960777    -0.69370
O61         O  0.56955384  0.30072889  0.49876416    -0.69300
O62         O  0.45220248  0.30242225  0.38071659    -0.69280
O63         O  0.45149987  0.30324955  0.49893511    -0.69250
O64         O  0.57043108  0.29978615  0.37973519    -0.69320
Ni65       Ni  0.50820102  0.20011712  0.43987003     1.25410
Ni66       Ni  0.51115811  0.30496240  0.43948938     1.25360
C67         C  0.58851599  0.25053980  0.35986533     0.92950
C68         C  0.43030065  0.25501872  0.51853892     0.92880
C69         C  0.43086865  0.25394531  0.36193763     0.92910
C70         C  0.58701834  0.25181770  0.51909868     0.93080
O71         O  0.43849427  0.43892509  0.14478028    -0.69230
O72         O  0.55746344  0.55880465  0.14539350    -0.69260
O73         O  0.55774846  0.44005735  0.14609269    -0.69320
O74         O  0.43811133  0.55806531  0.14430123    -0.69370
O75         O  0.43664173  0.55851567  0.24246069    -0.69300
O76         O  0.55540543  0.44125831  0.24425668    -0.69280
O77         O  0.55526793  0.55922946  0.24361121    -0.69250
O78         O  0.43703628  0.44012168  0.24299083    -0.69320
Ni79       Ni  0.49796663  0.49895991  0.14157811     1.25410
Ni80       Ni  0.49594203  0.49985155  0.24676545     1.25360
C81         C  0.41857464  0.41989333  0.19397615     0.92950
C82         C  0.57618790  0.57796195  0.19474494     0.92880
C83         C  0.57634060  0.42176120  0.19562151     0.92910
C84         C  0.41779020  0.57743779  0.19332852     0.93080
C85         C  0.69554661  0.70249110  0.63691815     0.02710
C86         C  0.80446806  0.79750419  0.74782779     0.02710
C87         C  0.69761082  0.30458732  0.64375294     0.02710
C88         C  0.80227139  0.19541230  0.74105264     0.02710
C89         C  0.30544740  0.69970586  0.63903900     0.02710
C90         C  0.19455922  0.80044521  0.74575692     0.02710
C91         C  0.70189402  0.69351531  0.23990281     0.02710
C92         C  0.79809361  0.80640586  0.14485174     0.02710
C93         C  0.30623584  0.29805281  0.63867283     0.02710
C94         C  0.19359422  0.20214215  0.74612609     0.02710
C95         C  0.29834931  0.69484133  0.24519000     0.02710
C96         C  0.20161499  0.80525786  0.13956816     0.02710
C97         C  0.70246158  0.30686574  0.23970465     0.02710
C98         C  0.79739962  0.19309239  0.14510151     0.02710
C99         C  0.30483297  0.29750421  0.24756558     0.02710
C100        C  0.19494891  0.20263427  0.13730036     0.02710
O101        O  0.19738886  0.06304748  0.99796606    -0.69230
O102        O  0.19828288  0.94392608  0.87903420    -0.69260
O103        O  0.19684001  0.94465514  0.99756270    -0.69320
O104        O  0.19853749  0.06246994  0.87952426    -0.69370
O105        O  0.29640372  0.06362289  0.87894954    -0.69300
O106        O  0.29470951  0.94474709  0.99795735    -0.69280
O107        O  0.29610426  0.94403051  0.87865955    -0.69250
O108        O  0.29521094  0.06393934  0.99835077    -0.69320
Ni109      Ni  0.19435437  0.00349466  0.93848737     1.25410
Ni110      Ni  0.29918533  0.00409917  0.93843435     1.25360
C111        C  0.24598958  0.08314010  0.01752079     0.92950
C112        C  0.24715896  0.92411869  0.85968049     0.92880
C113        C  0.24526921  0.92536908  0.01698141     0.92910
C114        C  0.24746616  0.08271688  0.86029277     0.93080
O115        O  0.05083520  0.29556568  0.00417381    -0.69230
O116        O  0.93261887  0.29719146  0.88520681    -0.69260
O117        O  0.93163528  0.29811247  0.00514459    -0.69320
O118        O  0.05140220  0.29476410  0.88512366    -0.69370
O119        O  0.04838076  0.19689960  0.88587840    -0.69300
O120        O  0.92943570  0.20026657  0.00506355    -0.69280
O121        O  0.93032893  0.19934329  0.88603504    -0.69250
O122        O  0.04766021  0.19770813  0.00409955    -0.69320
Ni123      Ni  0.99160786  0.29998599  0.94495347     1.25410
Ni124      Ni  0.98871808  0.19513911  0.94531663     1.25360
C125        C  0.06895402  0.24619477  0.02289730     0.92950
C126        C  0.91283573  0.24824549  0.86570531     0.92880
C127        C  0.91131922  0.24949716  0.02494241     0.92910
C128        C  0.06954646  0.24514583  0.86627826     0.93080
O129        O  0.94447844  0.05873318  0.14055393    -0.69230
O130        O  0.06329130  0.94152816  0.14234085    -0.69260
O131        O  0.94466825  0.94075994  0.14117490    -0.69320
O132        O  0.06284334  0.05992389  0.14183541    -0.69370
O133        O  0.06137242  0.06110072  0.24004599    -0.69300
O134        O  0.94246027  0.94116365  0.23939245    -0.69280
O135        O  0.06180978  0.94195709  0.24050039    -0.69250
O136        O  0.94212215  0.05991368  0.23871796    -0.69320
Ni137      Ni  0.00396673  0.00016644  0.13804084     1.25410
Ni138      Ni  0.00192856  0.00103587  0.24322820     1.25360
C139        C  0.92353256  0.07821560  0.18919031     0.92950
C140        C  0.08214246  0.92260169  0.19147112     0.92880
C141        C  0.92375272  0.92200571  0.19003459     0.92910
C142        C  0.08128448  0.08015643  0.19085631     0.93080
O143        O  0.80169972  0.94153772  0.99803464    -0.69230
O144        O  0.79919982  0.05895375  0.87892379    -0.69260
O145        O  0.80079196  0.05944939  0.99784445    -0.69320
O146        O  0.80003049  0.94057635  0.87946789    -0.69370
O147        O  0.70216509  0.93867587  0.88128729    -0.69300
O148        O  0.70292311  0.05834221  0.00041168    -0.69280
O149        O  0.70136386  0.05782219  0.88073074    -0.69250
O150        O  0.70385953  0.93962957  0.00073483    -0.69320
Ni151      Ni  0.80386095  0.00023811  0.93840140     1.25410
Ni152      Ni  0.69901531  0.99860663  0.94080905     1.25360
C153        C  0.75334244  0.92160183  0.01909381     0.92950
C154        C  0.75011567  0.07757666  0.86023078     0.92880
C155        C  0.75213151  0.07779249  0.01899955     0.92910
C156        C  0.75117505  0.91990269  0.86129944     0.93080
O157        O  0.94216315  0.05686063  0.64709855    -0.69230
O158        O  0.06070473  0.93898709  0.64633318    -0.69260
O159        O  0.94187876  0.93779005  0.64702254    -0.69320
O160        O  0.06085603  0.05827677  0.64607113    -0.69370
O161        O  0.06020412  0.05833920  0.74426684    -0.69300
O162        O  0.94192749  0.93856511  0.74521256    -0.69280
O163        O  0.05979087  0.94006852  0.74458945    -0.69250
O164        O  0.94227231  0.05680749  0.74535920    -0.69320
Ni165      Ni  0.00143869  0.99796020  0.64302988     1.25410
Ni166      Ni  0.00104952  0.99847185  0.74828998     1.25360
C167        C  0.92318543  0.07604150  0.69662638     0.92950
C168        C  0.07914908  0.92014682  0.69561702     0.92880
C169        C  0.92271297  0.91838827  0.69641733     0.92910
C170        C  0.07961965  0.07819083  0.69516572     0.93080
O171        O  0.93801601  0.70211681  0.01050212    -0.69230
O172        O  0.05769219  0.70523372  0.88999987    -0.69260
O173        O  0.05768996  0.70295653  0.00929675    -0.69320
O174        O  0.93882059  0.70454719  0.89093054    -0.69370
O175        O  0.93946466  0.80240214  0.89355882    -0.69300
O176        O  0.05736135  0.80079905  0.01102716    -0.69280
O177        O  0.05746664  0.80307250  0.89249743    -0.69250
O178        O  0.93858445  0.79994072  0.01217713    -0.69320
Ni179      Ni  0.99801280  0.70014070  0.95020805     1.25410
Ni180      Ni  0.99820784  0.80495918  0.95252082     1.25360
C181        C  0.91841164  0.75074393  0.03060372     0.92950
C182        C  0.07681951  0.75480549  0.87148054     0.92880
C183        C  0.07741115  0.75191869  0.02883546     0.92910
C184        C  0.92023074  0.75391870  0.87267666     0.93080
C185        C  0.15288339  0.23179762  0.09929039    -0.08080
C186        C  0.11478798  0.24407844  0.06530276    -0.09640
C187        C  0.23057549  0.16503379  0.09801389    -0.08080
C188        C  0.24416361  0.12837683  0.06184960    -0.09640
C189        C  0.15957798  0.16316308  0.17470045    -0.08080
C190        C  0.12494443  0.12564388  0.18942501    -0.09640
C191        C  0.22954039  0.24940752  0.17162506    -0.11240
C192        C  0.27024223  0.25072398  0.21324953    -0.26410
H193        H  0.25731628  0.21208039  0.19565566     0.17780
H194        H  0.24246481  0.28804769  0.18921598     0.18360
C195        C  0.75378969  0.12048528  0.06529149    -0.08080
C196        C  0.76619706  0.15481564  0.10373794    -0.09640
C197        C  0.83260447  0.23339769  0.10818527    -0.08080
C198        C  0.86754766  0.24881198  0.07088535    -0.09640
C199        C  0.87772789  0.12109716  0.18713663    -0.08080
C200        C  0.83965538  0.15546999  0.17519064    -0.09640
C201        C  0.74556868  0.27912621  0.19585237    -0.11240
C202        C  0.75428331  0.22082603  0.18894955    -0.26410
H203        H  0.77102099  0.30938558  0.16886699     0.17780
H204        H  0.72883216  0.19056640  0.21593571     0.18360
C205        C  0.16200994  0.76810809  0.10435664    -0.08080
C206        C  0.12374851  0.75336716  0.07099557    -0.09640
C207        C  0.23056918  0.84489693  0.09776378    -0.08080
C208        C  0.24300272  0.88101523  0.06114439    -0.09640
C209        C  0.16395835  0.84305489  0.17671229    -0.08080
C210        C  0.12723038  0.87874595  0.19040135    -0.09640
C211        C  0.24896209  0.77127746  0.17236773    -0.11240
C212        C  0.25102232  0.72883421  0.21237475    -0.26410
H213        H  0.21215489  0.74572826  0.20088440     0.17780
H214        H  0.28784002  0.75437411  0.18386166     0.18360
C215        C  0.12302357  0.12426151  0.69626902    -0.08080
C216        C  0.15764742  0.16229323  0.70975855    -0.09640
C217        C  0.23062555  0.16500927  0.78286247    -0.08080
C218        C  0.24597899  0.12826761  0.81722199    -0.09640
C219        C  0.15223122  0.23068135  0.78652498    -0.08080
C220        C  0.11488365  0.24262045  0.82238548    -0.09640
C221        C  0.27189652  0.25087546  0.67290368    -0.11240
C222        C  0.22793472  0.24931699  0.71189285    -0.26410
H223        H  0.24534704  0.28792953  0.69992185     0.17780
H224        H  0.25448457  0.21226221  0.68487602     0.18360
C225        C  0.87233991  0.75141649  0.07444171    -0.08080
C226        C  0.83492278  0.76632166  0.10945920    -0.09640
C227        C  0.76807781  0.84396557  0.10261233    -0.08080
C228        C  0.75569099  0.87846569  0.06472538    -0.09640
C229        C  0.87763687  0.87915125  0.18844569    -0.08080
C230        C  0.83933445  0.84471190  0.17605613    -0.09640
C231        C  0.74595379  0.72088854  0.19659931    -0.11240
C232        C  0.75403415  0.77903026  0.18815367    -0.26410
H233        H  0.77233524  0.69047753  0.17096816     0.17780
H234        H  0.72765207  0.80944093  0.21378453     0.18360
C235        C  0.15600528  0.76975933  0.78785464    -0.08080
C236        C  0.12065003  0.75729719  0.82578124    -0.09640
C237        C  0.24590213  0.87809037  0.81611498    -0.08080
C238        C  0.23199592  0.84016914  0.78142691    -0.09640
C239        C  0.15667202  0.83886357  0.71223544    -0.08080
C240        C  0.12216284  0.87528777  0.69741887    -0.09640
C241        C  0.27649243  0.74390627  0.68171033    -0.11240
C242        C  0.22353826  0.75625705  0.70309009    -0.26410
H243        H  0.22695228  0.73277702  0.66659108     0.17780
H244        H  0.27307385  0.76739647  0.71822188     0.18360
C245        C  0.76493056  0.15747287  0.77850400    -0.08080
C246        C  0.75096341  0.12158968  0.81515051    -0.09640
C247        C  0.83749879  0.23232454  0.78085307    -0.08080
C248        C  0.87079723  0.24687244  0.81924988    -0.09640
C249        C  0.87954836  0.12020971  0.69875598    -0.08080
C250        C  0.84349469  0.15614159  0.71182478    -0.09640
C251        C  0.72984504  0.27078865  0.69137557    -0.11240
C252        C  0.77002051  0.22919613  0.69343101    -0.26410
H253        H  0.75817057  0.24513961  0.65450816     0.17780
H254        H  0.74169002  0.25483876  0.73029923     0.18360
C255        C  0.84279196  0.76840691  0.78968881    -0.08080
C256        C  0.87730684  0.75606042  0.82731154    -0.09640
C257        C  0.75258849  0.87415554  0.81794878    -0.08080
C258        C  0.76721057  0.83654541  0.78349620    -0.09640
C259        C  0.87886574  0.87273232  0.69820484    -0.08080
C260        C  0.84317941  0.83561050  0.71192182    -0.09640
C261        C  0.72957525  0.74931793  0.67166770    -0.11240
C262        C  0.77044272  0.75068233  0.71306850    -0.26410
H263        H  0.75403889  0.71198000  0.69916562     0.17780
H264        H  0.74598207  0.78802285  0.68557105     0.18360
C265        C  0.66021184  0.34449908  0.20962041    -0.08080
C266        C  0.62214008  0.37887381  0.19767702    -0.09640
C267        C  0.62232807  0.62079059  0.19631918    -0.08080
C268        C  0.66064683  0.65521438  0.20870100    -0.09640
C269        C  0.33599390  0.65701322  0.20806511    -0.08080
C270        C  0.37271336  0.62130661  0.19439211    -0.09640
C271        C  0.34021537  0.33695423  0.21015519    -0.08080
C272        C  0.37487779  0.37444261  0.19542093    -0.09640
C273        C  0.34759530  0.26951740  0.59826748    -0.08080
C274        C  0.38495221  0.25757407  0.56241822    -0.09640
C275        C  0.66237156  0.26769283  0.60394646    -0.08080
C276        C  0.62906387  0.25316768  0.56554897    -0.09640
C277        C  0.63229131  0.25118626  0.31392441    -0.08080
C278        C  0.66724678  0.26657123  0.27662321    -0.09640
C279        C  0.38500898  0.25607865  0.31955983    -0.08080
C280        C  0.34689650  0.26835278  0.28558816    -0.09640
C281        C  0.26798024  0.66000265  0.60337783    -0.08080
C282        C  0.25403013  0.62209934  0.56868921    -0.09640
C283        C  0.25383789  0.37193749  0.56759404    -0.08080
C284        C  0.26920113  0.33519433  0.60194745    -0.09640
C285        C  0.25688284  0.61914350  0.32363047    -0.08080
C286        C  0.26935822  0.65523424  0.28699830    -0.09640
C287        C  0.25560857  0.37179343  0.32297973    -0.08080
C288        C  0.26920260  0.33512246  0.28683225    -0.09640
C289        C  0.65722134  0.73157899  0.59505098    -0.08080
C290        C  0.62270257  0.74391967  0.55742936    -0.09640
C291        C  0.37935924  0.74280387  0.55899108    -0.08080
C292        C  0.34400548  0.73037096  0.59692921    -0.09640
C293        C  0.66506874  0.73360292  0.27529523    -0.08080
C294        C  0.62765221  0.74851796  0.31030885    -0.09640
C295        C  0.37623795  0.74669395  0.31376419    -0.08080
C296        C  0.33796861  0.73197596  0.28040164    -0.09640
C297        C  0.74741699  0.62581905  0.56681395    -0.08080
C298        C  0.73280062  0.66343862  0.60125842    -0.09640
C299        C  0.73497229  0.34251186  0.60630707    -0.08080
C300        C  0.74895978  0.37838482  0.56965833    -0.09640
C301        C  0.74611126  0.37945432  0.31951044    -0.08080
C302        C  0.73368083  0.34513140  0.28106537    -0.09640
C303        C  0.73190829  0.65595476  0.28214269    -0.08080
C304        C  0.74429280  0.62146006  0.32003547    -0.09640
C305        C  0.65683442  0.66439720  0.67283567    -0.08080
C306        C  0.62113986  0.62728775  0.68656358    -0.09640
C307        C  0.37783180  0.62483605  0.68735806    -0.08080
C308        C  0.34332740  0.66126922  0.67254977    -0.09640
C309        C  0.34219409  0.33788816  0.67504263    -0.08080
C310        C  0.37684581  0.37589428  0.68853132    -0.09640
C311        C  0.65639946  0.34387364  0.67297769    -0.08080
C312        C  0.62035406  0.37981615  0.68604127    -0.09640
loop_ 
_geom_bond_atom_site_label_1 
_geom_bond_atom_site_label_2 
_geom_bond_distance 
_geom_bond_site_symmetry_2 
_ccdc_geom_bond_type 
O1           Ni9   1.914       .  S
O1           C11   1.280       .  A
O2           Ni9   1.914       .  S
O2           C12   1.280       .  A
O3           Ni9   1.901       .  S
O3           C13   1.277       .  A
O4           Ni9   1.900       .  S
O4           C14   1.277       .  A
O5          Ni10   1.919       .  S
O5           C14   1.280       .  A
O6          Ni10   1.917       .  S
O6           C13   1.279       .  A
O7          Ni10   1.925       .  S
O7           C12   1.280       .  A
O8          Ni10   1.925       .  S
O8           C11   1.280       .  A
Ni9         Ni10   2.394       .  S
C11         C310   1.438       .  S
C12         C306   1.438       .  S
C13         C312   1.424       .  S
C14         C307   1.426       .  S
O15         Ni23   1.908       .  S
O15          C25   1.279       .  A
O16         Ni23   1.908       .  S
O16          C26   1.279       .  A
O17         Ni23   1.911       .  S
O17          C27   1.279       .  A
O18         Ni23   1.913       .  S
O18          C28   1.280       .  A
O19         Ni24   1.926       .  S
O19          C28   1.280       .  A
O20         Ni24   1.925       .  S
O20          C27   1.281       .  A
O21         Ni24   1.921       .  S
O21          C26   1.279       .  A
O22         Ni24   1.920       .  S
O22          C25   1.279       .  A
Ni23        Ni24   2.393       .  S
C25         C301   1.432       .  S
C26         C297   1.433       .  S
C27         C304   1.436       .  S
C28         C300   1.439       .  S
O29         Ni37   1.914       .  S
O29          C39   1.280       .  A
O30         Ni37   1.911       .  S
O30          C40   1.279       .  A
O31         Ni37   1.910       .  S
O31          C41   1.279       .  A
O32         Ni37   1.907       .  S
O32          C42   1.278       .  A
O33         Ni38   1.923       .  S
O33          C42   1.280       .  A
O34         Ni38   1.925       .  S
O34          C41   1.280       .  A
O35         Ni38   1.924       .  S
O35          C40   1.280       .  A
O36         Ni38   1.927       .  S
O36          C39   1.281       .  A
Ni37        Ni38   2.392       .  S
C39         C294   1.441       .  S
C40         C291   1.435       .  S
C41         C295   1.436       .  S
C42         C290   1.432       .  S
O43         Ni51   1.927       .  S
O43          C53   1.281       .  A
O44         Ni51   1.927       .  S
O44          C54   1.281       .  A
O45         Ni51   1.921       .  S
O45          C55   1.280       .  A
O46         Ni51   1.924       .  S
O46          C56   1.280       .  A
O47         Ni52   1.905       .  S
O47          C56   1.278       .  A
O48         Ni52   1.906       .  S
O48          C55   1.278       .  A
O49         Ni52   1.915       .  S
O49          C54   1.280       .  A
O50         Ni52   1.914       .  S
O50          C53   1.280       .  A
Ni51        Ni52   2.393       .  S
C53         C287   1.440       .  S
C54         C282   1.441       .  S
C55         C285   1.430       .  S
C56         C283   1.433       .  S
O57         Ni65   1.925       .  S
O57          C67   1.280       .  A
O58         Ni65   1.920       .  S
O58          C68   1.280       .  A
O59         Ni65   1.923       .  S
O59          C69   1.280       .  A
O60         Ni65   1.924       .  S
O60          C70   1.280       .  A
O61         Ni66   1.910       .  S
O61          C70   1.279       .  A
O62         Ni66   1.908       .  S
O62          C69   1.278       .  A
O63         Ni66   1.908       .  S
O63          C68   1.278       .  A
O64         Ni66   1.911       .  S
O64          C67   1.279       .  A
Ni65        Ni66   2.393       .  S
C67         C277   1.437       .  S
C68         C274   1.431       .  S
C69         C279   1.432       .  S
C70         C276   1.435       .  S
O71         Ni79   1.921       .  S
O71          C81   1.279       .  A
O72         Ni79   1.919       .  S
O72          C82   1.279       .  A
O73         Ni79   1.928       .  S
O73          C83   1.281       .  A
O74         Ni79   1.929       .  S
O74          C84   1.281       .  A
O75         Ni80   1.916       .  S
O75          C84   1.280       .  A
O76         Ni80   1.914       .  S
O76          C83   1.279       .  A
O77         Ni80   1.908       .  S
O77          C82   1.278       .  A
O78         Ni80   1.908       .  S
O78          C81   1.279       .  A
Ni79        Ni80   2.392       .  S
C81         C272   1.432       .  S
C82         C267   1.431       .  S
C83         C266   1.440       .  S
C84         C270   1.442       .  S
C85         C261   1.536       .  S
C85         C289   1.466       .  S
C85         C298   1.472       .  S
C85         C305   1.476       .  S
C86         C262   1.536       .  S
C86         C255   1.466       .  S
C86         C258   1.472       .  S
C86         C260   1.476       .  S
C87         C251   1.532       .  S
C87         C275   1.474       .  S
C87         C299   1.476       .  S
C87         C311   1.458       .  S
C88         C252   1.532       .  S
C88         C245   1.476       .  S
C88         C247   1.474       .  S
C88         C250   1.458       .  S
C89         C241   1.544       .  S
C89         C281   1.485       .  S
C89         C292   1.469       .  S
C89         C308   1.461       .  S
C90         C242   1.544       .  S
C90         C235   1.469       .  S
C90         C238   1.485       .  S
C90         C239   1.461       .  S
C91         C231   1.531       .  S
C91         C268   1.466       .  S
C91         C293   1.478       .  S
C91         C303   1.470       .  S
C92         C232   1.531       .  S
C92         C226   1.478       .  S
C92         C227   1.470       .  S
C92         C230   1.466       .  S
C93         C221   1.536       .  S
C93         C273   1.465       .  S
C93         C284   1.472       .  S
C93         C309   1.476       .  S
C94         C222   1.536       .  S
C94         C216   1.476       .  S
C94         C217   1.472       .  S
C94         C219   1.465       .  S
C95         C212   1.538       .  S
C95         C269   1.479       .  S
C95         C286   1.463       .  S
C95         C296   1.474       .  S
C96         C211   1.538       .  S
C96         C205   1.474       .  S
C96         C207   1.463       .  S
C96         C209   1.479       .  S
C97         C201   1.532       .  S
C97         C265   1.474       .  S
C97         C278   1.475       .  S
C97         C302   1.467       .  S
C98         C202   1.532       .  S
C98         C196   1.467       .  S
C98         C197   1.475       .  S
C98         C200   1.474       .  S
C99         C192   1.537       .  S
C99         C271   1.471       .  S
C99         C280   1.466       .  S
C99         C288   1.478       .  S
C100        C191   1.537       .  S
C100        C185   1.466       .  S
C100        C187   1.478       .  S
C100        C189   1.471       .  S
O101       Ni109   1.914       .  S
O101        C111   1.280   1_556  A
O102       Ni109   1.915   1_565  S
O102        C112   1.280       .  A
O103       Ni109   1.906   1_565  S
O103        C113   1.278   1_556  A
O104       Ni109   1.905       .  S
O104        C114   1.278       .  A
O105       Ni110   1.924       .  S
O105        C114   1.280       .  A
O106       Ni110   1.921   1_565  S
O106        C113   1.280   1_556  A
O107       Ni110   1.927   1_565  S
O107        C112   1.281       .  A
O108       Ni110   1.927       .  S
O108        C111   1.281   1_556  A
Ni109      Ni110   2.393       .  S
C111        C188   1.440       .  S
C112        C237   1.441       .  S
C113        C208   1.430       .  S
C114        C218   1.433       .  S
O115       Ni123   1.923   1_454  S
O115        C125   1.280       .  A
O116       Ni123   1.924       .  S
O116        C126   1.280       .  A
O117       Ni123   1.925   1_554  S
O117        C127   1.280       .  A
O118       Ni123   1.920   1_455  S
O118        C128   1.280       .  A
O119       Ni124   1.908   1_455  S
O119        C128   1.278       .  A
O120       Ni124   1.911   1_554  S
O120        C127   1.279       .  A
O121       Ni124   1.910       .  S
O121        C126   1.279       .  A
O122       Ni124   1.908   1_454  S
O122        C125   1.278       .  A
Ni123      Ni124   2.393       .  S
C125        C186   1.432       .  S
C126        C248   1.435       .  S
C127        C198   1.437       .  S
C128        C220   1.431       .  S
O129       Ni137   1.914   1_655  S
O129        C139   1.279       .  A
O130       Ni137   1.916   1_565  S
O130        C140   1.280       .  A
O131       Ni137   1.908   1_665  S
O131        C141   1.278       .  A
O132       Ni137   1.908       .  S
O132        C142   1.279       .  A
O133       Ni138   1.921       .  S
O133        C142   1.279       .  A
O134       Ni138   1.919   1_665  S
O134        C141   1.279       .  A
O135       Ni138   1.929   1_565  S
O135        C140   1.281       .  A
O136       Ni138   1.928   1_655  S
O136        C139   1.281       .  A
Ni137      Ni138   2.392       .  S
C139        C199   1.440       .  S
C140        C210   1.442       .  S
C141        C229   1.431       .  S
C142        C190   1.432       .  S
O143       Ni151   1.911   1_565  S
O143        C153   1.279   1_556  A
O144       Ni151   1.913       .  S
O144        C154   1.280       .  A
O145       Ni151   1.908       .  S
O145        C155   1.279   1_556  A
O146       Ni151   1.908   1_565  S
O146        C156   1.279       .  A
O147       Ni152   1.921       .  S
O147        C156   1.279       .  A
O148       Ni152   1.920   1_544  S
O148        C155   1.279       .  A
O149       Ni152   1.926   1_545  S
O149        C154   1.280       .  A
O150       Ni152   1.925   1_554  S
O150        C153   1.281       .  A
Ni151      Ni152   2.393   1_545  S
C153        C228   1.436       .  S
C154        C246   1.439       .  S
C155        C195   1.432       .  S
C156        C257   1.433       .  S
O157       Ni165   1.917   1_645  S
O157        C167   1.279       .  A
O158       Ni165   1.919       .  S
O158        C168   1.280       .  A
O159       Ni165   1.925   1_655  S
O159        C169   1.280       .  A
O160       Ni165   1.925   1_545  S
O160        C170   1.280       .  A
O161       Ni166   1.914   1_545  S
O161        C170   1.280       .  A
O162       Ni166   1.914   1_655  S
O162        C169   1.280       .  A
O163       Ni166   1.900       .  S
O163        C168   1.277       .  A
O164       Ni166   1.901   1_645  S
O164        C167   1.277       .  A
Ni165      Ni166   2.394       .  S
C167        C249   1.424       .  S
C168        C240   1.426       .  S
C169        C259   1.438       .  S
C170        C215   1.438       .  S
O171       Ni179   1.928   1_554  S
O171        C181   1.281       .  A
O172       Ni179   1.924   1_455  S
O172        C182   1.280       .  A
O173       Ni179   1.925   1_454  S
O173        C183   1.280       .  A
O174       Ni179   1.923       .  S
O174        C184   1.280       .  A
O175       Ni180   1.907       .  S
O175        C184   1.278       .  A
O176       Ni180   1.910   1_454  S
O176        C183   1.279       .  A
O177       Ni180   1.911   1_455  S
O177        C182   1.279       .  A
O178       Ni180   1.914   1_554  S
O178        C181   1.280       .  A
Ni179      Ni180   2.392       .  S
C181        C225   1.441       .  S
C182        C236   1.435       .  S
C183        C206   1.436       .  S
C184        C256   1.432       .  S
C185        C186   1.206       .  T
C187        C188   1.210       .  T
C189        C190   1.206       .  T
C191        C192   1.334       .  D
C191        H193   1.204       .  S
C192        H194   1.204       .  S
C195        C196   1.206       .  T
C197        C198   1.209       .  T
C199        C200   1.210       .  T
C201        C202   1.355       .  D
C201        H203   1.086       .  S
C202        H204   1.086       .  S
C205        C206   1.208       .  T
C207        C208   1.204       .  T
C209        C210   1.211       .  T
C211        C212   1.334       .  D
C211        H213   1.204       .  S
C212        H214   1.204       .  S
C215        C216   1.209       .  T
C217        C218   1.206       .  T
C219        C220   1.205       .  T
C221        C222   1.332       .  D
C221        H223   1.207       .  S
C222        H224   1.207       .  S
C225        C226   1.211       .  T
C227        C228   1.208       .  T
C229        C230   1.205       .  T
C231        C232   1.352       .  D
C231        H233   1.086       .  S
C232        H234   1.086       .  S
C235        C236   1.208       .  T
C237        C238   1.211       .  T
C239        C240   1.202       .  T
C241        C242   1.330       .  D
C241        H243   1.210       .  S
C242        H244   1.210       .  S
C245        C246   1.209       .  T
C247        C248   1.207       .  T
C249        C250   1.201       .  T
C251        C252   1.327       .  D
C251        H253   1.206       .  S
C252        H254   1.206       .  S
C255        C256   1.206       .  T
C257        C258   1.206       .  T
C259        C260   1.209       .  T
C261        C262   1.333       .  D
C261        H263   1.205       .  S
C262        H264   1.205       .  S
C265        C266   1.210       .  T
C267        C268   1.205       .  T
C269        C270   1.211       .  T
C271        C272   1.206       .  T
C273        C274   1.205       .  T
C275        C276   1.208       .  T
C277        C278   1.209       .  T
C279        C280   1.206       .  T
C281        C282   1.211       .  T
C283        C284   1.206       .  T
C285        C286   1.204       .  T
C287        C288   1.210       .  T
C289        C290   1.206       .  T
C291        C292   1.208       .  T
C293        C294   1.211       .  T
C295        C296   1.208       .  T
C297        C298   1.206       .  T
C299        C300   1.209       .  T
C301        C302   1.206       .  T
C303        C304   1.208       .  T
C305        C306   1.209       .  T
C307        C308   1.202       .  T
C309        C310   1.209       .  T
C311        C312   1.201       .  T
