geometry optimzed in LAMMPS
_audit_creation_date              2020-12-01 
_audit_creation_method            'lammps2cif' 
_symmetry_space_group_name_H-M    'P1' 
_symmetry_Int_Tables_number       1 
_symmetry_cell_setting            triclinic 
loop_ 
_symmetry_equiv_pos_as_xyz 
  x,y,z 
_cell_length_a                    23.14311475 
_cell_length_b                    22.96796831800492 
_cell_length_c                    23.304975448682914 
_cell_angle_alpha                 89.98541283081649 
_cell_angle_beta                  90.13653607876432 
_cell_angle_gamma                 90.0720064045834 
loop_ 
_atom_site_label 
_atom_site_type_symbol 
_atom_site_fract_x 
_atom_site_fract_y 
_atom_site_fract_z 
_atom_site_charge 
O1          O  0.56702868  0.46949962  0.61269618    -0.73200
O2          O  0.42173212  0.54097138  0.60240933    -0.74200
O3          O  0.52948242  0.57800604  0.60585931    -0.62800
O4          O  0.45818730  0.43173472  0.60915203    -0.71200
O5          O  0.41653223  0.44615909  0.68942988    -0.70800
O6          O  0.56344346  0.56946962  0.69069890    -0.62100
O7          O  0.42874310  0.58156736  0.68459826    -0.74600
O8          O  0.55041213  0.43360165  0.69523294    -0.73300
Cu9        Cu  0.49408451  0.50494344  0.60666216     1.04600
Cu10       Cu  0.48950148  0.50808151  0.69751920     1.04300
C11         C  0.58044973  0.43171666  0.64844174     0.93000
C12         C  0.40442202  0.58053753  0.63451383     0.92100
C13         C  0.56640041  0.59458219  0.64100067     0.84200
C14         C  0.41835864  0.41709106  0.64191618     0.90500
O15         O  0.62492593  0.46156016  0.41989797    -0.73200
O16         O  0.61877884  0.53881157  0.56170218    -0.74200
O17         O  0.62268337  0.57192936  0.45264887    -0.62800
O18         O  0.62105359  0.42800091  0.52927942    -0.71200
O19         O  0.70172103  0.44320158  0.57091034    -0.70800
O20         O  0.70703781  0.55912787  0.41850257    -0.62100
O21         O  0.70157806  0.57816116  0.55150756    -0.74600
O22         O  0.70686317  0.42326860  0.43743991    -0.73300
Cu23       Cu  0.62098035  0.50003712  0.49087169     1.04600
Cu24       Cu  0.71202697  0.50096660  0.49485603     1.04300
C25         C  0.65920470  0.42171572  0.40817750     0.93000
C26         C  0.65164287  0.57896305  0.57644896     0.92100
C27         C  0.65805220  0.58619055  0.41503912     0.84200
C28         C  0.65311278  0.41523549  0.57018237     0.90500
O29         O  0.42037147  0.70919297  0.53453312    -0.73200
O30         O  0.57423229  0.70442815  0.42218903    -0.74200
O31         O  0.44002484  0.70318485  0.40268641    -0.62800
O32         O  0.55410881  0.71018168  0.55569293    -0.71200
O33         O  0.57196821  0.62775856  0.51865164    -0.70800
O34         O  0.42798738  0.62090231  0.44338366    -0.62100
O35         O  0.53673155  0.62056491  0.41038217    -0.74600
O36         O  0.46078054  0.62800854  0.55278602    -0.73300
Cu37       Cu  0.49731170  0.71461894  0.47832696     1.04600
Cu38       Cu  0.49931293  0.62326828  0.48149466     1.04300
C39         C  0.42003891  0.66143777  0.56389932     0.93000
C40         C  0.57584006  0.65455519  0.39613191     0.92100
C41         C  0.41346936  0.65349620  0.40321904     0.84200
C42         C  0.58352437  0.66227538  0.55803808     0.90500
O43         O  0.37849307  0.53152036  0.40799325    -0.73200
O44         O  0.37037442  0.46773954  0.55683482    -0.74200
O45         O  0.37708100  0.42511887  0.45013593    -0.62800
O46         O  0.37204480  0.57592271  0.51255365    -0.71200
O47         O  0.29015708  0.56084684  0.55081366    -0.70800
O48         O  0.29616135  0.43522762  0.40745943    -0.62100
O49         O  0.29062196  0.42462740  0.54044699    -0.74600
O50         O  0.29560285  0.57073587  0.41664303    -0.73300
Cu51       Cu  0.37561768  0.49998461  0.48208266     1.04600
Cu52       Cu  0.28520691  0.49792157  0.47849407     1.04300
C53         C  0.34509606  0.56990597  0.39067399     0.93000
C54         C  0.33766921  0.42704675  0.57039008     0.92100
C55         C  0.34524944  0.40845199  0.41036607     0.84200
C56         C  0.33769491  0.59072453  0.55051533     0.90500
O57         O  0.57345830  0.37474755  0.45967948    -0.73200
O58         O  0.42442873  0.37707511  0.52320372    -0.74200
O59         O  0.53109746  0.37802185  0.56621581    -0.62800
O60         O  0.46680920  0.37354788  0.41781516    -0.71200
O61         O  0.42681754  0.29130260  0.43261491    -0.70800
O62         O  0.57185552  0.29558171  0.55699442    -0.62100
O63         O  0.43695743  0.29607277  0.56600031    -0.74600
O64         O  0.56081911  0.29080444  0.42304148    -0.73300
Cu65       Cu  0.49900141  0.37695486  0.49173647     1.04600
Cu66       Cu  0.49911088  0.28556470  0.49497671     1.04300
C67         C  0.58899083  0.33951172  0.42236007     0.93000
C68         C  0.40860186  0.34452166  0.56262762     0.92100
C69         C  0.57040916  0.34536153  0.58304254     0.84200
C70         C  0.42817579  0.33903278  0.40303018     0.90500
O71         O  0.43079592  0.55155160  0.27653880    -0.73200
O72         O  0.58114187  0.43148958  0.28739176    -0.74200
O73         O  0.44641416  0.41657376  0.28294662    -0.62800
O74         O  0.56598158  0.56815207  0.28104982    -0.71200
O75         O  0.57808025  0.53018443  0.36336320    -0.70800
O76         O  0.43081931  0.46002562  0.36216982    -0.62100
O77         O  0.53866525  0.42139704  0.36762974    -0.74600
O78         O  0.46892531  0.56938031  0.35774514    -0.73300
Cu79       Cu  0.50647992  0.49161234  0.27409049     1.04600
Cu80       Cu  0.50407435  0.49537403  0.36373228     1.04300
C81         C  0.42957036  0.58163464  0.32347553     0.93000
C82         C  0.57920827  0.40533081  0.33668246     0.92100
C83         C  0.41725794  0.41892860  0.33024828     0.84200
C84         C  0.59272000  0.56960533  0.32994893     0.90500
C85         C  0.61674074  0.62914351  0.60913728    -0.02800
C86         C  0.88329971  0.86783227  0.86603620    -0.02800
C87         C  0.61778494  0.38129051  0.61865641    -0.02800
C88         C  0.87046693  0.11631581  0.86365276    -0.02800
C89         C  0.37007375  0.62850772  0.59853507    -0.02800
C90         C  0.12987618  0.88183324  0.86455919    -0.02800
C91         C  0.62632185  0.62018519  0.36372030    -0.02800
C92         C  0.88542119  0.87062688  0.11122175    -0.02800
C93         C  0.37093573  0.37962233  0.60818547    -0.02800
C94         C  0.11613486  0.12977128  0.86357809    -0.02800
C95         C  0.37955154  0.61780978  0.35461433    -0.02800
C96         C  0.13061016  0.88448611  0.10999613    -0.02800
C97         C  0.62664786  0.37100191  0.37379552    -0.02800
C98         C  0.87112102  0.11911529  0.10902212    -0.02800
C99         C  0.38078803  0.37138342  0.36450706    -0.02800
C100        C  0.11796330  0.13131471  0.10798907    -0.02800
O101        O  0.12152122  0.04140131  0.91346479    -0.73200
O102        O  0.12583000  0.97235100  0.05944849    -0.74200
O103        O  0.11887706  0.07971618  0.02118223    -0.62800
O104        O  0.12875709  0.93214267  0.95206879    -0.71200
O105        O  0.20888862  0.95105333  0.91165366    -0.70800
O106        O  0.20292096  0.07293569  0.05840427    -0.62100
O107        O  0.20977496  0.93725553  0.04585472    -0.74600
O108        O  0.20149949  0.08606893  0.92541992    -0.73300
Cu109      Cu  0.12272433  0.00633346  0.98640911     1.04600
Cu110      Cu  0.21354542  0.01220502  0.98537955     1.04300
C111        C  0.15261836  0.08287449  0.89857282     0.93000
C112        C  0.16161400  0.93503335  0.07409718     0.92100
C113        C  0.15240020  0.09713938  0.05920472     0.84200
C114        C  0.16242299  0.91964551  0.91252284     0.90500
O115        O  0.91549530  0.20198272  0.92570937    -0.73200
O116        O  0.06543735  0.21143934  0.04422664    -0.74200
O117        O  0.04860748  0.20889842  0.91126497    -0.62800
O118        O  0.93116882  0.20398514  0.05952881    -0.71200
O119        O  0.92090484  0.12044248  0.02138719    -0.70800
O120        O  0.06657692  0.12754733  0.95139746    -0.62100
O121        O  0.02910834  0.12785949  0.05973675    -0.74600
O122        O  0.95822693  0.12058533  0.91435021    -0.73300
Cu123      Cu  0.98969798  0.21443988  0.98517172     1.04600
Cu124      Cu  0.99385963  0.12305343  0.98675397     1.04300
C125        C  0.91770132  0.15255464  0.89900425     0.93000
C126        C  0.06742154  0.16330902  0.07309415     0.92100
C127        C  0.07894239  0.16163369  0.91193029     0.84200
C128        C  0.90516788  0.15398702  0.06002353     0.90500
O129        O  0.92366712  0.05888948  0.19155893    -0.73200
O130        O  0.07953653  0.94590553  0.19178393    -0.74200
O131        O  0.05776137  0.08049848  0.19061583    -0.62800
O132        O  0.94584818  0.92374207  0.19251783    -0.71200
O133        O  0.92942426  0.96254193  0.11109355    -0.70800
O134        O  0.07199467  0.04036826  0.10947699    -0.62100
O135        O  0.03978362  0.92961875  0.11089742    -0.74600
O136        O  0.96188030  0.07337483  0.10983359    -0.73300
Cu137      Cu  0.00170474  0.00236123  0.19946443     1.04600
Cu138      Cu  0.00076668  0.00148703  0.10938716     1.04300
C139        C  0.92191624  0.08630001  0.14296708     0.93000
C140        C  0.08035991  0.91757498  0.14374902     0.92100
C141        C  0.08492235  0.08105727  0.14209974     0.84200
C142        C  0.91785372  0.92199019  0.14436640     0.90500
O143        O  0.87857528  0.95719230  0.91518221    -0.73200
O144        O  0.87515726  0.02984532  0.06022731    -0.74200
O145        O  0.88159779  0.92050869  0.02324149    -0.62800
O146        O  0.87191217  0.06726367  0.95205155    -0.71200
O147        O  0.79132392  0.04828056  0.91219213    -0.70800
O148        O  0.79892847  0.92872721  0.06223887    -0.62100
O149        O  0.79108496  0.06477977  0.04668942    -0.74600
O150        O  0.79883549  0.91285750  0.92867463    -0.73300
Cu151      Cu  0.87777886  0.99379305  0.98761092     1.04600
Cu152      Cu  0.78724483  0.98823855  0.98750955     1.04300
C153        C  0.84735347  0.91540824  0.90123741     0.93000
C154        C  0.83966657  0.06777495  0.07432139     0.92100
C155        C  0.84917254  0.90385608  0.06242840     0.84200
C156        C  0.83815880  0.07919793  0.91224867     0.90500
O157        O  0.07078806  0.06314393  0.78203068    -0.73200
O158        O  0.92870751  0.93303363  0.78325029    -0.74200
O159        O  0.93626602  0.06964792  0.78255183    -0.62800
O160        O  0.06420604  0.92723045  0.78287607    -0.71200
O161        O  0.07452849  0.96732579  0.86482165    -0.70800
O162        O  0.92465015  0.03012991  0.86430754    -0.62100
O163        O  0.96832763  0.92340133  0.86530382    -0.74600
O164        O  0.03088044  0.07459165  0.86348531    -0.73300
Cu165      Cu  0.99988721  0.99814293  0.77498003     1.04600
Cu166      Cu  0.99964853  0.99887498  0.86543884     1.04300
C167        C  0.06921072  0.09140158  0.83007724     0.93000
C168        C  0.93000585  0.90593655  0.83201984     0.92100
C169        C  0.90831662  0.06864941  0.83062362     0.84200
C170        C  0.09155573  0.92887664  0.83138227     0.90500
O171        O  0.08667748  0.79697363  0.92851393    -0.73200
O172        O  0.93857975  0.79049238  0.04837219    -0.74200
O173        O  0.95245833  0.78960833  0.91451325    -0.62800
O174        O  0.07279808  0.79771396  0.06166359    -0.71200
O175        O  0.07985831  0.88138017  0.02262401    -0.70800
O176        O  0.93350289  0.87105807  0.95351066    -0.62100
O177        O  0.97250333  0.87591110  0.06024771    -0.74600
O178        O  0.04198804  0.87679018  0.91463355    -0.73300
Cu179      Cu  0.01298398  0.78586834  0.98839288     1.04600
Cu180      Cu  0.00698314  0.87730409  0.98763535     1.04300
C181        C  0.08336963  0.84549579  0.90049319     0.93000
C182        C  0.93585637  0.83964784  0.07557475     0.92100
C183        C  0.92112644  0.83629539  0.91459078     0.84200
C184        C  0.09695367  0.84857309  0.06156021     0.90500
C185        C  0.34335488  0.33376580  0.32599640    -0.01600
C186        C  0.35512483  0.27454862  0.31747079    -0.09600
C187        C  0.31965783  0.24041824  0.28266363    -0.18400
C188        C  0.27052086  0.26423865  0.25524056     0.04000
C189        C  0.25907330  0.32442084  0.26332108     0.18100
C190        C  0.29599661  0.35858080  0.29733645    -0.19900
C191        C  0.21082067  0.35019991  0.23743609    -0.21100
C192        C  0.17402578  0.31757717  0.20281518    -0.19700
C193        C  0.18461161  0.25840373  0.19315209     0.19500
C194        C  0.23269955  0.23072804  0.21973060     0.01700
C195        C  0.24056967  0.17061578  0.20984651    -0.14400
C196        C  0.20292126  0.13965567  0.17455946    -0.12100
C197        C  0.15669737  0.16726204  0.14675990     0.01200
C198        C  0.14739065  0.22672289  0.15695305    -0.24300
H199        H  0.39243036  0.25410325  0.33684514     0.09200
H200        H  0.33213029  0.19537714  0.27806831     0.12800
H201        H  0.28747613  0.40470356  0.30196613     0.11500
H202        H  0.20163503  0.39598720  0.24377766     0.12700
H203        H  0.13722276  0.33892443  0.18309327     0.11700
H204        H  0.27517946  0.14588079  0.22912795     0.08800
H205        H  0.21007474  0.09341656  0.16885924     0.12100
H206        H  0.11095486  0.24863620  0.13734216     0.13900
C207        C  0.83134677  0.15516226  0.14727619    -0.01600
C208        C  0.80142487  0.12823490  0.19230783    -0.09600
C209        C  0.76776705  0.16079391  0.23050780    -0.18400
C210        C  0.76322696  0.22208607  0.22526721     0.04000
C211        C  0.79202668  0.24899215  0.17854147     0.18100
C212        C  0.82450681  0.21558673  0.13985405    -0.19900
C213        C  0.78898680  0.30940885  0.17089817    -0.21100
C214        C  0.75804399  0.34394749  0.20886904    -0.19700
C215        C  0.72898911  0.31899697  0.25531055     0.19500
C216        C  0.73125788  0.25775189  0.26436978     0.01700
C217        C  0.70185303  0.23513650  0.31246276    -0.14400
C218        C  0.67012244  0.27138728  0.34871890    -0.12100
C219        C  0.66568574  0.33157002  0.33825382     0.01200
C220        C  0.69696029  0.35501185  0.29226817    -0.24300
H221        H  0.80473347  0.08162973  0.19844589     0.09200
H222        H  0.74637508  0.13676973  0.26402413     0.12800
H223        H  0.84460580  0.23771625  0.10428019     0.11500
H224        H  0.81098462  0.33020962  0.13536030     0.12700
H225        H  0.75659484  0.39057647  0.20164896     0.11700
H226        H  0.70257812  0.18956334  0.32333406     0.08800
H227        H  0.64932273  0.25127310  0.38503677     0.12100
H228        H  0.69515517  0.40153391  0.28438074     0.13900
C229        C  0.16883654  0.84731317  0.14829728    -0.01600
C230        C  0.22669125  0.86204707  0.15899517    -0.09600
C231        C  0.26217691  0.82590356  0.19174887    -0.18400
C232        C  0.24120375  0.77304114  0.21472248     0.04000
C233        C  0.18193292  0.75934172  0.20594495     0.18100
C234        C  0.14633674  0.79684912  0.17395827    -0.19900
C235        C  0.15863354  0.70808863  0.22879672    -0.21100
C236        C  0.19291062  0.67036478  0.26078698    -0.19700
C237        C  0.25144483  0.68272203  0.27030584     0.19500
C238        C  0.27670944  0.73367694  0.24657049     0.01700
C239        C  0.33662051  0.74246231  0.25503260    -0.14400
C240        C  0.36932667  0.70376658  0.28789475    -0.12100
C241        C  0.34363498  0.65565683  0.31457391     0.01200
C242        C  0.28479726  0.64447620  0.30378180    -0.24300
H243        H  0.24509237  0.90196903  0.14259724     0.09200
H244        H  0.30589704  0.84072191  0.19836793     0.12800
H245        H  0.10113280  0.78611491  0.16809395     0.11500
H246        H  0.11354535  0.69725256  0.22214992     0.12700
H247        H  0.17343185  0.63133458  0.27836827     0.11700
H248        H  0.35969133  0.77864577  0.23651570     0.08800
H249        H  0.41507471  0.71218538  0.29335702     0.12100
H250        H  0.26437607  0.60594611  0.32100780     0.13900
C251        C  0.15303771  0.16914483  0.82623912    -0.01600
C252        C  0.15968920  0.22869047  0.83841649    -0.09600
C253        C  0.19392369  0.26435074  0.80411776    -0.18400
C254        C  0.22338754  0.24177214  0.75612770     0.04000
C255        C  0.21740177  0.18131726  0.74423003     0.18100
C256        C  0.18303970  0.14575043  0.77945518    -0.19900
C257        C  0.24575361  0.15667775  0.69722482    -0.21100
C258        C  0.28014157  0.19080375  0.66180459    -0.19700
C259        C  0.28722128  0.25036521  0.67265730     0.19500
C260        C  0.25887420  0.27685970  0.71982973     0.01700
C261        C  0.26697451  0.33736928  0.72820281    -0.14400
C262        C  0.30225911  0.36981857  0.69164483    -0.12100
C263        C  0.33153266  0.34331530  0.64612152     0.01200
C264        C  0.32264354  0.28352295  0.63639664    -0.24300
H265        H  0.13968316  0.24848288  0.87534396     0.09200
H266        H  0.19675504  0.30933141  0.81676336     0.12800
H267        H  0.17951845  0.09960320  0.77038077     0.11500
H268        H  0.24132675  0.11069075  0.68778296     0.12700
H269        H  0.30158632  0.17036733  0.62576613     0.11700
H270        H  0.24647999  0.36111579  0.76233012     0.08800
H271        H  0.30685649  0.41609073  0.69921386     0.12100
H272        H  0.34238572  0.26217835  0.60013461     0.13900
C273        C  0.66630849  0.65672165  0.32609260    -0.01600
C274        C  0.71471924  0.63102650  0.30040606    -0.09600
C275        C  0.75285835  0.66386635  0.26682134    -0.18400
C276        C  0.74352095  0.72399825  0.25710447     0.04000
C277        C  0.69368037  0.74959449  0.28194481     0.18100
C278        C  0.65584740  0.71609337  0.31552420    -0.19900
C279        C  0.68147181  0.80860058  0.27292374    -0.21100
C280        C  0.71746223  0.84284237  0.23923164    -0.19700
C281        C  0.76669518  0.81901898  0.21374075     0.19500
C282        C  0.78091388  0.75946839  0.22280920     0.01700
C283        C  0.83187077  0.73819159  0.19704982    -0.14400
C284        C  0.86561632  0.77367208  0.16174790    -0.12100
C285        C  0.85007840  0.83175487  0.15075551     0.01200
C286        C  0.80143773  0.85441806  0.17865337    -0.24300
H287        H  0.72323969  0.58509616  0.30650323     0.09200
H288        H  0.78899179  0.64076515  0.24864112     0.12800
H289        H  0.61769973  0.73689617  0.33245336     0.11500
H290        H  0.64352041  0.82841020  0.29182422     0.12700
H291        H  0.70645639  0.88821018  0.23273498     0.11700
H292        H  0.84683829  0.69420283  0.20329780     0.08800
H293        H  0.90434990  0.75504001  0.14371159     0.12100
H294        H  0.79009206  0.89973396  0.17233452     0.13900
C295        C  0.16614700  0.84427336  0.82471617    -0.01600
C296        C  0.13816795  0.81189628  0.78190270    -0.09600
C297        C  0.16930305  0.77811094  0.74305532    -0.18400
C298        C  0.23024392  0.77496295  0.74579564     0.04000
C299        C  0.25867198  0.80657782  0.79007011     0.18100
C300        C  0.22667488  0.84068396  0.82887463    -0.19900
C301        C  0.31890407  0.80375761  0.79549649    -0.21100
C302        C  0.35148092  0.76957432  0.75837240    -0.19700
C303        C  0.32473363  0.73770368  0.71450892     0.19500
C304        C  0.26385565  0.74074983  0.70695626     0.01700
C305        C  0.23930125  0.70942884  0.66077229    -0.14400
C306        C  0.27324619  0.67454287  0.62534926    -0.12100
C307        C  0.33294747  0.66901660  0.63463725     0.01200
C308        C  0.35846631  0.70219509  0.67853559    -0.24300
H309        H  0.09149976  0.81283906  0.77836719     0.09200
H310        H  0.14419842  0.75450033  0.71178189     0.12800
H311        H  0.24940030  0.86396184  0.86233219     0.11500
H312        H  0.34099062  0.82777329  0.82907694     0.12700
H313        H  0.39788657  0.76781523  0.76421249     0.11700
H314        H  0.19390394  0.71106189  0.65062302     0.08800
H315        H  0.25185267  0.65208236  0.59062816     0.12100
H316        H  0.40475074  0.69965345  0.68518914     0.13900
C317        C  0.65577704  0.34401517  0.65750265    -0.01600
C318        C  0.65803770  0.35211477  0.71722360    -0.09600
C319        C  0.69202575  0.31636040  0.75208483    -0.18400
C320        C  0.72598093  0.27132826  0.72844921     0.04000
C321        C  0.72573506  0.26481307  0.66777120     0.18100
C322        C  0.69054054  0.30049157  0.63325913    -0.19900
C323        C  0.76058592  0.22265561  0.64184756    -0.21100
C324        C  0.79498009  0.18608503  0.67496908    -0.19700
C325        C  0.79486356  0.19018645  0.73494415     0.19500
C326        C  0.76038992  0.23281178  0.76265834     0.01700
C327        C  0.76139591  0.23440580  0.82336246    -0.14400
C328        C  0.79617050  0.19623858  0.85490393    -0.12100
C329        C  0.83091836  0.15478963  0.82754933     0.01200
C330        C  0.82903882  0.15162617  0.76727158    -0.24300
H331        H  0.63377737  0.38617458  0.73794995     0.09200
H332        H  0.69116300  0.32549056  0.79742177     0.12800
H333        H  0.69026094  0.29454124  0.58709036     0.11500
H334        H  0.76111932  0.21779102  0.59559345     0.12700
H335        H  0.82139737  0.15385640  0.65349013     0.11700
H336        H  0.73573965  0.26455337  0.84781229     0.08800
H337        H  0.79614975  0.19931863  0.90130729     0.12100
H338        H  0.85398700  0.11937695  0.74460277     0.13900
C339        C  0.65471388  0.66442713  0.64965391    -0.01600
C340        C  0.68822543  0.63517950  0.69080540    -0.09600
C341        C  0.72563831  0.66548549  0.72733422    -0.18400
C342        C  0.73046357  0.72681249  0.72449114     0.04000
C343        C  0.69492211  0.75652711  0.68417518     0.18100
C344        C  0.65804285  0.72538090  0.64719132    -0.19900
C345        C  0.69684419  0.81730453  0.68040281    -0.21100
C346        C  0.73423074  0.84931399  0.71488824    -0.19700
C347        C  0.77076859  0.82144326  0.75407604     0.19500
C348        C  0.76926173  0.75982394  0.75981024     0.01700
C349        C  0.80679749  0.73417998  0.80050003    -0.14400
C350        C  0.84360678  0.76828031  0.83433527    -0.14100
C351        C  0.84520583  0.82920555  0.82844583     0.01200
C352        C  0.80864572  0.85510858  0.78775938    -0.24300
H353        H  0.68615487  0.58819669  0.69404349     0.09200
H354        H  0.75031321  0.63959314  0.75717807     0.12800
H355        H  0.63248129  0.74921021  0.61627565     0.11500
H356        H  0.66953191  0.84031896  0.65009613     0.12700
H357        H  0.73484874  0.89631816  0.71057053     0.11700
H358        H  0.80847753  0.68783760  0.80757198     0.08800
H359        H  0.87014850  0.74611065  0.86543935     0.12100
H360        H  0.80906662  0.90210357  0.78300243     0.13900
loop_ 
_geom_bond_atom_site_label_1 
_geom_bond_atom_site_label_2 
_geom_bond_distance 
_geom_bond_site_symmetry_2 
_ccdc_geom_bond_type 
O1           Cu9   1.880       .  S
O1           C11   1.242       .  A
O2           Cu9   1.871       .  S
O2           C12   1.245       .  A
O3           Cu9   1.867       .  S
O3           C13   1.242       .  A
O4           Cu9   1.876       .  S
O4           C14   1.244       .  A
O5          Cu10   2.214       .  S
O5           C14   1.294       .  A
O6          Cu10   2.222       .  S
O6           C13   1.296       .  A
O7          Cu10   2.218       .  S
O7           C12   1.295       .  A
O8          Cu10   2.219       .  S
O8           C11   1.295       .  A
Cu9         Cu10   2.122       .  S
C11          C87   1.605       .  S
C12          C89   1.596       .  S
C13          C85   1.594       .  S
C14          C93   1.599       .  S
O15         Cu23   1.878       .  S
O15          C25   1.243       .  A
O16         Cu23   1.877       .  S
O16          C26   1.243       .  A
O17         Cu23   1.876       .  S
O17          C27   1.244       .  A
O18         Cu23   1.881       .  S
O18          C28   1.242       .  A
O19         Cu24   2.227       .  S
O19          C28   1.295       .  A
O20         Cu24   2.228       .  S
O20          C27   1.296       .  A
O21         Cu24   2.225       .  S
O21          C26   1.295       .  A
O22         Cu24   2.234       .  S
O22          C25   1.296       .  A
Cu23        Cu24   2.109       .  S
C25          C97   1.601       .  S
C26          C85   1.602       .  S
C27          C91   1.605       .  S
C28          C87   1.598       .  S
O29         Cu37   2.216       .  S
O29          C39   1.293       .  A
O30         Cu37   2.224       .  S
O30          C40   1.297       .  A
O31         Cu37   2.219       .  S
O31          C41   1.296       .  A
O32         Cu37   2.231       .  S
O32          C42   1.296       .  A
O33         Cu38   1.892       .  S
O33          C42   1.241       .  A
O34         Cu38   1.873       .  S
O34          C41   1.244       .  A
O35         Cu38   1.873       .  S
O35          C40   1.240       .  A
O36         Cu38   1.891       .  S
O36          C39   1.244       .  A
Cu37        Cu38   2.100       .  S
C39          C89   1.601       .  S
C40          C91   1.602       .  S
C41          C95   1.602       .  S
C42          C85   1.608       .  S
O43         Cu51   1.874       .  S
O43          C53   1.240       .  A
O44         Cu51   1.897       .  S
O44          C54   1.243       .  A
O45         Cu51   1.874       .  S
O45          C55   1.243       .  A
O46         Cu51   1.885       .  S
O46          C56   1.239       .  A
O47         Cu52   2.223       .  S
O47          C56   1.296       .  A
O48         Cu52   2.210       .  S
O48          C55   1.294       .  A
O49         Cu52   2.221       .  S
O49          C54   1.293       .  A
O50         Cu52   2.221       .  S
O50          C53   1.297       .  A
Cu51        Cu52   2.094       .  S
C53          C95   1.598       .  S
C54          C93   1.598       .  S
C55          C99   1.597       .  S
C56          C89   1.601       .  S
O57         Cu65   1.881       .  S
O57          C67   1.242       .  A
O58         Cu65   1.877       .  S
O58          C68   1.240       .  A
O59         Cu65   1.887       .  S
O59          C69   1.243       .  A
O60         Cu65   1.877       .  S
O60          C70   1.242       .  A
O61         Cu66   2.218       .  S
O61          C70   1.295       .  A
O62         Cu66   2.228       .  S
O62          C69   1.295       .  A
O63         Cu66   2.209       .  S
O63          C68   1.295       .  A
O64         Cu66   2.208       .  S
O64          C67   1.294       .  A
Cu65        Cu66   2.100       .  S
C67          C97   1.602       .  S
C68          C93   1.595       .  S
C69          C87   1.602       .  S
C70          C99   1.599       .  S
O71         Cu79   2.230       .  S
O71          C81   1.294       .  A
O72         Cu79   2.234       .  S
O72          C82   1.297       .  A
O73         Cu79   2.223       .  S
O73          C83   1.295       .  A
O74         Cu79   2.237       .  S
O74          C84   1.296       .  A
O75         Cu80   1.889       .  S
O75          C84   1.241       .  A
O76         Cu80   1.879       .  S
O76          C83   1.242       .  A
O77         Cu80   1.881       .  S
O77          C82   1.241       .  A
O78         Cu80   1.890       .  S
O78          C81   1.242       .  A
Cu79        Cu80   2.092       .  S
C81          C95   1.601       .  S
C82          C97   1.604       .  S
C83          C99   1.595       .  S
C84          C91   1.603       .  S
C85         C339   1.522       .  S
C86         C153   1.602       .  S
C86         C168   1.601       .  S
C86         C183   1.602       .  S
C86         C351   1.525       .  S
C87         C317   1.524       .  S
C88         C125   1.600       .  S
C88         C156   1.603       .  S
C88         C169   1.601       .  S
C88         C329   1.525       .  S
C89         C307   1.522       .  S
C90         C114   1.602       .  S
C90         C170   1.597       .  S
C90         C181   1.599       .  S
C90         C295   1.522       .  S
C91         C273   1.527       .  S
C92         C142   1.596       .  S
C92         C155   1.605       .  S
C92         C182   1.602       .  S
C92         C285   1.522       .  S
C93         C263   1.520       .  S
C94         C111   1.593       .  S
C94         C127   1.598       .  S
C94         C167   1.600       .  S
C94         C251   1.518       .  S
C95         C241   1.522       .  S
C96         C112   1.601       .  S
C96         C140   1.599       .  S
C96         C184   1.599       .  S
C96         C229   1.519       .  S
C97         C219   1.526       .  S
C98         C128   1.603       .  S
C98         C139   1.604       .  S
C98         C154   1.603       .  S
C98         C207   1.528       .  S
C99         C185   1.516       .  S
C100        C113   1.597       .  S
C100        C126   1.602       .  S
C100        C141   1.597       .  S
C100        C197   1.515       .  S
O101       Cu109   1.881       .  S
O101        C111   1.243       .  A
O102       Cu109   1.874   1_564  S
O102        C112   1.240       .  A
O103       Cu109   1.873   1_554  S
O103        C113   1.242       .  A
O104       Cu109   1.888   1_565  S
O104        C114   1.242       .  A
O105       Cu110   2.222   1_565  S
O105        C114   1.294       .  A
O106       Cu110   2.215   1_554  S
O106        C113   1.295       .  A
O107       Cu110   2.226   1_564  S
O107        C112   1.297       .  A
O108       Cu110   2.215       .  S
O108        C111   1.293       .  A
Cu109      Cu110   2.106       .  S
O115       Cu123   2.222       .  S
O115        C125   1.296       .  A
O116       Cu123   2.227   1_454  S
O116        C126   1.295       .  A
O117       Cu123   2.203   1_455  S
O117        C127   1.294       .  A
O118       Cu123   2.215   1_554  S
O118        C128   1.296       .  A
O119       Cu124   1.874   1_554  S
O119        C128   1.241       .  A
O120       Cu124   1.878   1_455  S
O120        C127   1.241       .  A
O121       Cu124   1.888   1_454  S
O121        C126   1.242       .  A
O122       Cu124   1.877       .  S
O122        C125   1.244       .  A
Cu123      Cu124   2.102       .  S
O129       Cu137   2.233   1_655  S
O129        C139   1.296       .  A
O130       Cu137   2.228   1_565  S
O130        C140   1.295       .  A
O131       Cu137   2.223       .  S
O131        C141   1.295       .  A
O132       Cu137   2.225   1_665  S
O132        C142   1.295       .  A
O133       Cu138   1.877   1_665  S
O133        C142   1.241       .  A
O134       Cu138   1.874       .  S
O134        C141   1.241       .  A
O135       Cu138   1.883   1_565  S
O135        C140   1.242       .  A
O136       Cu138   1.881   1_655  S
O136        C139   1.243       .  A
Cu137      Cu138   2.099       .  S
O143       Cu151   1.886       .  S
O143        C153   1.243       .  A
O144       Cu151   1.885   1_544  S
O144        C154   1.243       .  A
O145       Cu151   1.879   1_554  S
O145        C155   1.243       .  A
O146       Cu151   1.885   1_545  S
O146        C156   1.242       .  A
O147       Cu152   2.234   1_545  S
O147        C156   1.295       .  A
O148       Cu152   2.230   1_554  S
O148        C155   1.296       .  A
O149       Cu152   2.236   1_544  S
O149        C154   1.296       .  A
O150       Cu152   2.226       .  S
O150        C153   1.295       .  A
Cu151      Cu152   2.099       .  S
O157       Cu165   2.223   1_445  S
O157        C167   1.295       .  A
O158       Cu165   2.232       .  S
O158        C168   1.296       .  A
O159       Cu165   2.214   1_545  S
O159        C169   1.295       .  A
O160       Cu165   2.215   1_455  S
O160        C170   1.295       .  A
O161       Cu166   1.879   1_455  S
O161        C170   1.243       .  A
O162       Cu166   1.879   1_545  S
O162        C169   1.241       .  A
O163       Cu166   1.878       .  S
O163        C168   1.243       .  A
O164       Cu166   1.883   1_445  S
O164        C167   1.243       .  A
Cu165      Cu166   2.108       .  S
O171       Cu179   2.221       .  S
O171        C181   1.294       .  A
O172       Cu179   2.223   1_654  S
O172        C182   1.297       .  A
O173       Cu179   2.219   1_655  S
O173        C183   1.295       .  A
O174       Cu179   2.212   1_554  S
O174        C184   1.294       .  A
O175       Cu180   1.874   1_554  S
O175        C184   1.244       .  A
O176       Cu180   1.881   1_655  S
O176        C183   1.241       .  A
O177       Cu180   1.873   1_654  S
O177        C182   1.241       .  A
O178       Cu180   1.886       .  S
O178        C181   1.243       .  A
Cu179      Cu180   2.105       .  S
C185        C186   1.402       .  A
C185        C190   1.404       .  A
C186        C187   1.393       .  A
C186        H199   1.081       .  S
C187        C188   1.414       .  A
C187        H200   1.080       .  S
C188        C194   1.428       .  A
C188        C189   1.420       .  A
C189        C191   1.400       .  A
C189        C190   1.403       .  A
C190        H201   1.083       .  S
C191        C192   1.390       .  A
C191        H202   1.083       .  S
C192        C193   1.400       .  A
C192        H203   1.085       .  S
C193        C194   1.423       .  A
C193        C198   1.407       .  A
C194        C195   1.412       .  A
C195        C196   1.392       .  A
C195        H204   1.080       .  S
C196        C197   1.402       .  A
C196        H205   1.083       .  S
C197        C198   1.403       .  A
C198        H206   1.083       .  S
C207        C208   1.402       .  A
C207        C212   1.408       .  A
C208        C209   1.401       .  A
C208        H221   1.083       .  S
C209        C210   1.417       .  A
C209        H222   1.077       .  S
C210        C216   1.433       .  A
C210        C211   1.419       .  A
C211        C213   1.401       .  A
C211        C212   1.404       .  A
C212        H223   1.078       .  S
C213        C214   1.389       .  A
C213        H224   1.084       .  S
C214        C215   1.398       .  A
C214        H225   1.085       .  S
C215        C216   1.423       .  A
C215        C220   1.407       .  A
C216        C217   1.411       .  A
C217        C218   1.397       .  A
C217        H226   1.077       .  S
C218        C219   1.407       .  A
C218        H227   1.078       .  S
C219        C220   1.402       .  A
C220        H228   1.085       .  S
C229        C230   1.402       .  A
C229        C234   1.404       .  A
C230        C231   1.395       .  A
C230        H243   1.081       .  S
C231        C232   1.413       .  A
C231        H244   1.078       .  S
C232        C238   1.429       .  A
C232        C233   1.421       .  A
C233        C235   1.400       .  A
C233        C234   1.405       .  A
C234        H245   1.083       .  S
C235        C236   1.391       .  A
C235        H246   1.083       .  S
C236        C237   1.401       .  A
C236        H247   1.084       .  S
C237        C238   1.420       .  A
C237        C242   1.405       .  A
C238        C239   1.414       .  A
C239        C240   1.396       .  A
C239        H248   1.078       .  S
C240        C241   1.400       .  A
C240        H249   1.083       .  S
C241        C242   1.407       .  A
C242        H250   1.080       .  S
C251        C252   1.405       .  A
C251        C256   1.402       .  A
C252        C253   1.392       .  A
C252        H265   1.079       .  S
C253        C254   1.411       .  A
C253        H266   1.076       .  S
C254        C260   1.429       .  A
C254        C255   1.423       .  A
C255        C257   1.398       .  A
C255        C256   1.405       .  A
C256        H267   1.084       .  S
C257        C258   1.389       .  A
C257        H268   1.084       .  S
C258        C259   1.401       .  A
C258        H269   1.084       .  S
C259        C260   1.419       .  A
C259        C264   1.403       .  A
C260        C261   1.416       .  A
C261        C262   1.396       .  A
C261        H270   1.076       .  S
C262        C263   1.400       .  A
C262        H271   1.082       .  S
C263        C264   1.407       .  A
C264        H272   1.080       .  S
C273        C274   1.402       .  A
C273        C278   1.407       .  A
C274        C275   1.401       .  A
C274        H287   1.083       .  S
C275        C276   1.416       .  A
C275        H288   1.079       .  S
C276        C282   1.433       .  A
C276        C277   1.420       .  A
C277        C279   1.400       .  A
C277        C278   1.404       .  A
C278        H289   1.080       .  S
C279        C280   1.389       .  A
C279        H290   1.084       .  S
C280        C281   1.398       .  A
C280        H291   1.084       .  S
C281        C282   1.423       .  A
C281        C286   1.406       .  A
C282        C283   1.412       .  A
C283        C284   1.397       .  A
C283        H292   1.078       .  S
C284        C285   1.405       .  A
C284        H293   1.080       .  S
C285        C286   1.402       .  A
C286        H294   1.084       .  S
C295        C296   1.401       .  A
C295        C300   1.406       .  A
C296        C297   1.395       .  A
C296        H309   1.083       .  S
C297        C298   1.414       .  A
C297        H310   1.077       .  S
C298        C304   1.431       .  A
C298        C299   1.422       .  A
C299        C301   1.401       .  A
C299        C300   1.409       .  A
C300        H311   1.081       .  S
C301        C302   1.392       .  A
C301        H312   1.084       .  S
C302        C303   1.400       .  A
C302        H313   1.083       .  S
C303        C304   1.421       .  A
C303        C308   1.408       .  A
C304        C305   1.413       .  A
C305        C306   1.395       .  A
C305        H314   1.077       .  S
C306        C307   1.404       .  A
C306        H315   1.079       .  S
C307        C308   1.404       .  A
C308        H316   1.084       .  S
C317        C318   1.405       .  A
C317        C322   1.404       .  A
C318        C319   1.397       .  A
C318        H331   1.078       .  S
C319        C320   1.412       .  A
C319        H332   1.077       .  S
C320        C326   1.432       .  A
C320        C321   1.422       .  A
C321        C323   1.399       .  A
C321        C322   1.407       .  A
C322        H333   1.085       .  S
C323        C324   1.390       .  A
C323        H334   1.084       .  S
C324        C325   1.401       .  A
C324        H335   1.084       .  S
C325        C326   1.420       .  A
C325        C330   1.406       .  A
C326        C327   1.415       .  A
C327        C328   1.398       .  A
C327        H336   1.077       .  S
C328        C329   1.401       .  A
C328        H337   1.084       .  S
C329        C330   1.407       .  A
C330        H338   1.079       .  S
C339        C340   1.404       .  A
C339        C344   1.403       .  A
C340        C341   1.398       .  A
C340        H353   1.083       .  S
C341        C342   1.414       .  A
C341        H354   1.078       .  S
C342        C348   1.433       .  A
C342        C343   1.422       .  A
C343        C345   1.399       .  A
C343        C344   1.407       .  A
C344        H355   1.080       .  S
C345        C346   1.389       .  A
C345        H356   1.085       .  S
C346        C347   1.399       .  A
C346        H357   1.084       .  S
C347        C348   1.422       .  A
C347        C352   1.406       .  A
C348        C349   1.413       .  A
C349        C350   1.399       .  A
C349        H358   1.078       .  S
C350        C351   1.406       .  A
C350        H359   1.077       .  S
C351        C352   1.402       .  A
C352        H360   1.085       .  S
