geometry optimzed in LAMMPS
_audit_creation_date              2020-12-01 
_audit_creation_method            'lammps2cif' 
_symmetry_space_group_name_H-M    'P1' 
_symmetry_Int_Tables_number       1 
_symmetry_cell_setting            triclinic 
loop_ 
_symmetry_equiv_pos_as_xyz 
  x,y,z 
_cell_length_a                    29.24812099 
_cell_length_b                    29.359734973701002 
_cell_length_c                    35.98807730849052 
_cell_angle_alpha                 88.51967011015991 
_cell_angle_beta                  89.09691125905233 
_cell_angle_gamma                 129.81811220356124 
loop_ 
_atom_site_label 
_atom_site_type_symbol 
_atom_site_fract_x 
_atom_site_fract_y 
_atom_site_fract_z 
_atom_site_charge 
C1          C  0.70998145  0.30905146  0.91160041     0.86000
C2          C  0.64382221  0.27682194  0.91955248    -0.54200
C3          C  0.62164793  0.29787603  0.89856914     0.08900
C4          C  0.66862227  0.35016821  0.87117758     0.19900
C5          C  0.71529609  0.30531143  0.86955643    -0.54900
C6          C  0.69350737  0.32630540  0.84787229     0.09000
C7          C  0.74136269  0.37482180  0.91652877    -0.54500
C8          C  0.72078111  0.39686916  0.89518642     0.09600
H9          H  0.61710202  0.24075571  0.94046716     0.14100
H10         H  0.65108484  0.36783540  0.85462346    -0.00100
H11         H  0.73521855  0.28731062  0.85869619     0.14400
H12         H  0.77729353  0.40296924  0.93492228     0.14200
C13         C  0.71917083  0.31119720  0.74469305     0.86000
C14         C  0.75126526  0.37719473  0.73581173    -0.54200
C15         C  0.72680383  0.39795490  0.75402789     0.08900
C16         C  0.67257750  0.35045677  0.78002442     0.19900
C17         C  0.71966021  0.30639253  0.78697778    -0.54900
C18         C  0.69550716  0.32670497  0.80615642     0.09000
C19         C  0.65420130  0.27920114  0.73618182    -0.54500
C20         C  0.62928668  0.29926590  0.75433615     0.09600
H21         H  0.78970908  0.40566293  0.71692880     0.14100
H22         H  0.65228033  0.36712889  0.79402731    -0.00100
H23         H  0.73834865  0.28817484  0.79987750     0.14400
H24         H  0.62985810  0.24299720  0.71734357     0.14200
C25         C  0.29174538  0.72813082  0.23884353     0.86000
C26         C  0.28435586  0.72993612  0.28087204    -0.54200
C27         C  0.30600670  0.70896918  0.30271022     0.08900
C28         C  0.33310855  0.68723888  0.27944869     0.19900
C29         C  0.35832204  0.76166074  0.23185030    -0.54900
C30         C  0.38068791  0.74094238  0.25299120     0.09000
C31         C  0.26177909  0.66291028  0.23294068    -0.54500
C32         C  0.28259328  0.64111759  0.25429807     0.09600
H33         H  0.26273255  0.74628052  0.29157767     0.14100
H34         H  0.35036142  0.66943813  0.29617284    -0.00100
H35         H  0.38500834  0.79819465  0.21124388     0.14400
H36         H  0.22642074  0.63480118  0.21413773     0.14200
C37         C  0.27395387  0.71905575  0.40560760     0.86000
C38         C  0.27702498  0.72669959  0.36333213    -0.54200
C39         C  0.30139152  0.70634183  0.34449831     0.08900
C40         C  0.32103777  0.67967623  0.37102002     0.19900
C41         C  0.23996154  0.65227793  0.41319754    -0.54900
C42         C  0.26438608  0.63133851  0.39514128     0.09000
C43         C  0.33777246  0.74896166  0.41596046    -0.54500
C44         C  0.36301327  0.72875538  0.39832512     0.09600
H45         H  0.26064188  0.74704106  0.35017213     0.14100
H46         H  0.34086787  0.66261120  0.35692776    -0.00100
H47         H  0.20157794  0.62394344  0.43217152     0.14400
H48         H  0.36113434  0.78416515  0.43550807     0.14200
O49         O  0.89136293  0.88957250  0.03110789    -0.81400
O50         O  0.01628150  0.11366142  0.12345521    -0.66100
O51         O  0.97727267  0.01046498  0.04487451    -1.12700
C52         C  0.07514853  0.96129274  0.11887542     1.05500
O53         O  0.10851002  0.14662864  0.12126992    -0.79300
O54         O  0.14522040  0.10035985  0.07959565    -0.66800
Ni55       Ni  0.89915824  0.95969704  0.02621795     1.34900
C56         C  0.13304390  0.07706842  0.04822700     0.84300
O57         O  0.96300768  0.09478982  0.05903051    -0.79800
O58         O  0.89980323  0.02515669  0.01911005    -0.90100
C59         C  0.07020600  0.15122617  0.13230182     0.83800
O60         O  0.85492845  0.93640190  0.07224603    -0.68300
O61         O  0.10121582  0.01172947  0.13280420    -0.87600
C62         C  0.86730693  0.95871172  0.10394225     0.84700
C63         C  0.92469230  0.07475156  0.03393428     1.06200
H64         H  0.99713308  0.00104847  0.12854981     0.38000
O65         O  0.02340240  0.02593947  0.10747458    -1.10200
O66         O  0.08154921  0.02954271  0.04104014    -0.66900
Ni67       Ni  0.00623028  0.97462122  0.06864753     1.26300
O68         O  0.91897315  0.00556608  0.11147000    -0.67100
O69         O  0.03622484  0.94066044  0.09411831    -0.79400
C70         C  0.92927896  0.88400129  0.02094098     0.84000
O71         O  0.98333096  0.92172353  0.02948012    -0.66600
Ni72       Ni  0.10153755  0.07697953  0.12586397     1.27400
Ni73       Ni  0.99395538  0.06137200  0.08394719     1.26100
H74         H  0.00386613  0.03550162  0.02394168     0.38600
O75         O  0.12640402  0.12216270  0.62206719    -0.81400
O76         O  0.89925196  0.99789509  0.53123202    -0.66100
O77         O  0.00477749  0.03746584  0.60939722    -1.12700
C78         C  0.05137893  0.93922319  0.53519052     1.05500
O79         O  0.86541313  0.90587976  0.53596259    -0.79300
O80         O  0.91346010  0.86900050  0.57605001    -0.66800
Ni81       Ni  0.05653432  0.11504144  0.62772984     1.34900
C82         C  0.93663293  0.88170049  0.60759167     0.84300
O83         O  0.92056956  0.05205169  0.59536085    -0.79800
O84         O  0.99108349  0.11423596  0.63536035    -0.90100
C85         C  0.86024050  0.94347208  0.52414287     0.83800
O86         O  0.07832869  0.15943410  0.58183475    -0.68300
O87         O  0.00055557  0.91367217  0.52145677    -0.87600
C88         C  0.05563894  0.14766451  0.55014821     0.84700
C89         C  0.94116752  0.08976359  0.62062847     1.06200
H90         H  0.01236010  0.01661536  0.52606021     0.38000
O91         O  0.98762969  0.99078157  0.54731818    -1.10200
O92         O  0.98410861  0.93323550  0.61451184    -0.66900
Ni93       Ni  0.03953070  0.00755676  0.58615537     1.26300
O94         O  0.00913752  0.09587167  0.54234761    -0.67100
O95         O  0.07211300  0.97643575  0.56085542    -0.79400
C96         C  0.13134973  0.08430755  0.63364796     0.84000
O97         O  0.09322250  0.03031838  0.62543049    -0.66600
Ni98       Ni  0.93503845  0.91267513  0.52977003     1.27400
Ni99       Ni  0.95317667  0.02094293  0.57042738     1.26100
H100        H  0.97974721  0.01128645  0.63046599     0.38600
C101        C  0.80679530  0.92187668  0.50317363    -0.03800
C102        C  0.76603747  0.86170450  0.49436270    -0.09600
C103        C  0.71574898  0.84024021  0.47435881    -0.17300
C104        C  0.70507250  0.87833812  0.46270487     0.24900
C105        C  0.74519455  0.93836033  0.47130184    -0.18900
C106        C  0.79589824  0.96010820  0.49134196    -0.07800
C107        C  0.65115813  0.85452583  0.44380447    -0.14300
C108        C  0.60299124  0.83157597  0.43132758    -0.14000
C109        C  0.54246677  0.80355582  0.42230210     0.24800
C110        C  0.52048511  0.78105186  0.38718352    -0.19400
C111        C  0.46156895  0.75525402  0.37931689    -0.07900
C112        C  0.42422441  0.75177478  0.40655579    -0.04000
C113        C  0.44650958  0.77271161  0.44202990    -0.09300
C114        C  0.50500139  0.79865455  0.44965252    -0.16900
H115        H  0.77291329  0.83092176  0.50292915     0.11200
H116        H  0.68486005  0.79366128  0.46824057     0.10500
H117        H  0.73707509  0.96820612  0.46276795     0.10500
H118        H  0.82629345  0.00656508  0.49769645     0.11000
H119        H  0.54896586  0.78411577  0.36582121     0.11000
H120        H  0.44596445  0.73969812  0.35174636     0.11000
H121        H  0.41878049  0.76910710  0.46419095     0.11200
H122        H  0.52110545  0.81511756  0.47704409     0.10000
C123        C  0.08689975  0.92338532  0.52042585    -0.03800
C124        C  0.07113438  0.89332802  0.48707466    -0.09600
C125        C  0.10066191  0.87350466  0.47425727    -0.17300
C126        C  0.14634457  0.88323211  0.49450852     0.24900
C127        C  0.16378056  0.91467236  0.52715068    -0.18900
C128        C  0.13435140  0.93490028  0.54001922    -0.07800
C129        C  0.17304170  0.85843277  0.48226171    -0.14300
C130        C  0.19166327  0.83468581  0.47062470    -0.14000
C131        C  0.21188694  0.80522258  0.45537054     0.24800
C132        C  0.26469706  0.83767214  0.43357439    -0.19400
C133        C  0.28378588  0.80907403  0.41799933    -0.07900
C134        C  0.25067099  0.74737247  0.42403004    -0.04000
C135        C  0.19720543  0.71507327  0.44596141    -0.09300
C136        C  0.17809828  0.74391929  0.46144208    -0.16900
H137        H  0.03522704  0.88421954  0.47108585     0.11200
H138        H  0.08697904  0.84945772  0.44889636     0.10500
H139        H  0.19921003  0.92247381  0.54301234     0.10500
H140        H  0.14745707  0.95784134  0.56577961     0.11000
H141        H  0.29099405  0.88507237  0.42840560     0.11000
H142        H  0.32471160  0.83524595  0.40096574     0.11000
H143        H  0.16924321  0.66773317  0.45107789     0.11200
H144        H  0.13669863  0.71828369  0.47798676     0.10000
C145        C  0.23986980  0.56864426  0.40055074    -0.03800
C146        C  0.17816598  0.52223739  0.40661924    -0.09600
C147        C  0.15555168  0.46433930  0.41567722    -0.17300
C148        C  0.19407927  0.45166014  0.41866095     0.24900
C149        C  0.25532911  0.49705842  0.41122579    -0.18900
C150        C  0.27808508  0.55512159  0.40210633    -0.07800
C151        C  0.17129700  0.39363801  0.43270515    -0.14300
C152        C  0.15225471  0.34722101  0.44839272    -0.14000
C153        C  0.13088805  0.29595434  0.47203193     0.24800
C154        C  0.15354802  0.30464535  0.50742928    -0.19400
C155        C  0.13049734  0.25623701  0.53207528    -0.07900
C156        C  0.08384629  0.19782240  0.52193540    -0.04000
C157        C  0.06225978  0.18919216  0.48586406    -0.09300
C158        C  0.08567925  0.23799809  0.46107923    -0.16900
H159        H  0.14735586  0.53084576  0.40499572     0.11200
H160        H  0.10811919  0.42978673  0.42140378     0.10500
H161        H  0.28574937  0.48802178  0.41370466     0.10500
H162        H  0.32579292  0.58979054  0.39801851     0.11000
H163        H  0.18826624  0.34914321  0.51637321     0.11000
H164        H  0.14821368  0.26491658  0.55956831     0.11000
H165        H  0.02641107  0.14495845  0.47712403     0.11200
H166        H  0.06760959  0.23059556  0.43376285     0.10000
C167        C  0.25511662  0.57766680  0.25372587    -0.03800
C168        C  0.19290763  0.53400538  0.25162765    -0.09600
C169        C  0.16676838  0.47534944  0.24515372    -0.17300
C170        C  0.20229952  0.45929591  0.24094000     0.24900
C171        C  0.26397294  0.50171090  0.24505198    -0.18900
C172        C  0.29027632  0.56066515  0.25164089    -0.07800
C173        C  0.17592970  0.40096674  0.22890437    -0.14300
C174        C  0.15407616  0.35409111  0.21545217    -0.14000
C175        C  0.13114525  0.30120801  0.19627374     0.24800
C176        C  0.16828376  0.28776941  0.18890193    -0.19400
C177        C  0.14813708  0.23892958  0.16818200    -0.07900
C178        C  0.09031391  0.20253181  0.15449081    -0.04000
C179        C  0.05280153  0.21576947  0.16245078    -0.09300
C180        C  0.07325813  0.26503143  0.18313612    -0.16900
H181        H  0.16458552  0.54568452  0.25381962     0.11200
H182        H  0.11906349  0.44300846  0.24207089     0.10500
H183        H  0.29194653  0.48976253  0.24171027     0.10500
H184        H  0.33813271  0.59330526  0.25300290     0.11000
H185        H  0.21319626  0.31554098  0.19876836     0.11000
H186        H  0.17805457  0.22979268  0.16282514     0.11000
H187        H  0.00809899  0.18859816  0.15232663     0.11200
H188        H  0.04424577  0.27530295  0.18848647     0.10000
C189        C  0.44448960  0.76762407  0.24949463    -0.03800
C190        C  0.46116360  0.73240599  0.25455376    -0.09600
C191        C  0.51990305  0.75606377  0.24654995    -0.17300
C192        C  0.56290229  0.81541159  0.23386075     0.24900
C193        C  0.54752233  0.85164966  0.23078422    -0.18900
C194        C  0.48893869  0.82810716  0.23869200    -0.07800
C195        C  0.62107087  0.83786967  0.22060239    -0.14300
C196        C  0.66776095  0.85701682  0.20540937    -0.14000
C197        C  0.72011609  0.87972611  0.18277205     0.24800
C198        C  0.77508515  0.93496431  0.18928817    -0.19400
C199        C  0.82402633  0.95970958  0.16456288    -0.07900
C200        C  0.81833384  0.92966449  0.13279918    -0.04000
C201        C  0.76342670  0.87323815  0.12728888    -0.09300
C202        C  0.71479134  0.84854631  0.15208715    -0.16900
H203        H  0.42856900  0.68597753  0.26300234     0.11200
H204        H  0.53123803  0.72750701  0.24899584     0.10500
H205        H  0.58040435  0.89771441  0.22112409     0.10500
H206        H  0.47832696  0.85715265  0.23559953     0.11000
H207        H  0.77964398  0.95970638  0.21281491     0.11000
H208        H  0.86553710  0.00331527  0.16951641     0.11000
H209        H  0.75751309  0.84876822  0.10323887     0.11200
H210        H  0.67245195  0.80588665  0.14665659     0.10000
C211        C  0.09328218  0.92661715  0.13161554    -0.03800
C212        C  0.07852688  0.87826803  0.11188631    -0.09600
C213        C  0.10185169  0.85044187  0.12179827    -0.17300
C214        C  0.13984477  0.87041230  0.15160186     0.24900
C215        C  0.15287881  0.91694320  0.17214935    -0.18900
C216        C  0.12986234  0.94482196  0.16229525    -0.07800
C217        C  0.16707154  0.84475335  0.16085220    -0.14300
C218        C  0.19175691  0.82589104  0.17040762    -0.14000
C219        C  0.22052719  0.80365587  0.18408558     0.24800
C220        C  0.26784995  0.83707415  0.20793036    -0.19400
C221        C  0.29213452  0.81315702  0.22387201    -0.07900
C222        C  0.26896437  0.75494054  0.21677070    -0.04000
C223        C  0.22332555  0.72314122  0.19101508    -0.09300
C224        C  0.19931789  0.74728184  0.17505659    -0.16900
H225        H  0.05063385  0.86323747  0.08811115     0.11200
H226        H  0.09124652  0.81423384  0.10578145     0.10500
H227        H  0.18189157  0.93253521  0.19540066     0.10500
H228        H  0.14187118  0.98158251  0.17829320     0.11000
H229        H  0.28499813  0.88104364  0.21496858     0.11000
H230        H  0.32769411  0.83932370  0.24302010     0.11000
H231        H  0.20458199  0.67930965  0.18315491     0.11200
H232        H  0.16313103  0.72126811  0.15627320     0.10000
C233        C  0.74209095  0.28302798  0.72574797    -0.03800
C234        C  0.71080558  0.22197752  0.73331959    -0.09600
C235        C  0.72881885  0.19314779  0.71666675    -0.17300
C236        C  0.77868531  0.22478187  0.69224902     0.24900
C237        C  0.81083390  0.28550042  0.68470658    -0.18900
C238        C  0.79275698  0.31456494  0.70123594    -0.07800
C239        C  0.79827929  0.19534992  0.67625960    -0.14300
C240        C  0.81758944  0.17222807  0.66488440    -0.14000
C241        C  0.84668102  0.14941241  0.65417086     0.24800
C242        C  0.90310316  0.17608991  0.66726674    -0.19400
C243        C  0.93297824  0.15564913  0.65691597    -0.07900
C244        C  0.90690667  0.10813035  0.63310682    -0.04000
C245        C  0.84971890  0.08101847  0.62028089    -0.08700
C246        C  0.81968143  0.10156701  0.63086994    -0.16900
H247        H  0.67200861  0.19646401  0.75225356     0.11200
H248        H  0.70403010  0.14624379  0.72302944     0.10500
H249        H  0.85011541  0.31048898  0.66616929     0.10500
H250        H  0.81914904  0.36138303  0.69464646     0.11000
H251        H  0.92430734  0.21314804  0.68530636     0.11000
H252        H  0.97704688  0.17790704  0.66714480     0.11000
H253        H  0.82851513  0.04445084  0.60187947     0.11200
H254        H  0.77582598  0.08057424  0.62068169     0.10000
C255        C  0.74899604  0.45954433  0.74721257    -0.03800
C256        C  0.77225054  0.48780546  0.71168861    -0.09600
C257        C  0.79376782  0.54559491  0.70479607    -0.17300
C258        C  0.79225064  0.57637687  0.73308404     0.24900
C259        C  0.76881078  0.54873703  0.76860386    -0.18900
C260        C  0.74719279  0.49050706  0.77563899    -0.07800
C261        C  0.81431256  0.63582950  0.72444612    -0.14300
C262        C  0.83372991  0.68354391  0.71088946    -0.14000
C263        C  0.85666858  0.73609209  0.68828643     0.24800
C264        C  0.91315522  0.79030677  0.69394365    -0.19400
C265        C  0.93835893  0.83877840  0.66861249    -0.07900
C266        C  0.90758335  0.83335061  0.63704351    -0.04000
C267        C  0.84996597  0.77929756  0.63243841    -0.09300
C268        C  0.82481149  0.73119385  0.65784528    -0.16900
H269        H  0.77305503  0.46498949  0.68887682     0.11200
H270        H  0.81134163  0.56623458  0.67715359     0.10500
H271        H  0.76731609  0.57207498  0.79077243     0.10500
H272        H  0.73001285  0.47017545  0.80334719     0.11000
H273        H  0.93854371  0.79453292  0.71718876     0.11000
H274        H  0.98284293  0.87962938  0.67291657     0.11000
H275        H  0.82484727  0.77358760  0.60860920     0.11200
H276        H  0.78126862  0.68942668  0.65297759     0.10000
C277        C  0.56724634  0.27467076  0.74772729    -0.03800
C278        C  0.53014875  0.26835543  0.77647739    -0.09600
C279        C  0.47056566  0.24148102  0.76998511    -0.17300
C280        C  0.44779960  0.22095139  0.73470113     0.24900
C281        C  0.48497354  0.22840979  0.70593376    -0.18900
C282        C  0.54407358  0.25516518  0.71227880    -0.07800
C283        C  0.38680254  0.19268952  0.72695103    -0.14300
C284        C  0.33822218  0.17010072  0.71535255    -0.14000
C285        C  0.28415603  0.14696644  0.69692632     0.24800
C286        C  0.27498810  0.18596086  0.68451162    -0.19400
C287        C  0.22525193  0.16526640  0.66411106    -0.07900
C288        C  0.18367831  0.10503411  0.65559086    -0.04000
C289        C  0.19271503  0.06579937  0.66856947    -0.09300
C290        C  0.24278925  0.08674121  0.68904283    -0.16900
H291        H  0.54663800  0.28268307  0.80407703     0.11200
H292        H  0.44226370  0.23626749  0.79246399     0.10500
H293        H  0.46818848  0.21338054  0.67844463     0.10500
H294        H  0.57169382  0.26066903  0.68922766     0.11000
H295        H  0.30682332  0.23268907  0.69013451     0.11000
H296        H  0.21967847  0.19675102  0.65477475     0.11000
H297        H  0.16146327  0.01919103  0.66265501     0.11200
H298        H  0.24965248  0.05616962  0.69826306     0.10000
C299        C  0.73312438  0.28264458  0.93384268    -0.03800
C300        C  0.77894326  0.31492999  0.95949396    -0.09600
C301        C  0.80314262  0.29119054  0.97577067    -0.17300
C302        C  0.78189432  0.23462983  0.96728830     0.24900
C303        C  0.73453587  0.20079321  0.94349222    -0.18900
C304        C  0.71004728  0.22433251  0.92721045    -0.07800
C305        C  0.81012042  0.21225115  0.98187893    -0.14300
C306        C  0.83390474  0.19276663  0.99226482    -0.14000
C307        C  0.85995950  0.16606586  0.00206673     0.24800
C308        C  0.84878964  0.12119153  0.98052286    -0.19400
C309        C  0.87145657  0.09293692  0.99030562    -0.07900
C310        C  0.90597590  0.10919644  0.02186050    -0.04000
C311        C  0.91826891  0.15541867  0.04294995    -0.09300
C312        C  0.89523906  0.18358052  0.03312894    -0.16900
H313        H  0.79747282  0.35870877  0.96729377     0.11200
H314        H  0.83928344  0.31753099  0.99454588     0.10500
H315        H  0.71732590  0.15665032  0.93688604     0.10500
H316        H  0.67431438  0.19771966  0.90823737     0.11000
H317        H  0.82172421  0.10736366  0.95638367     0.11000
H318        H  0.86111527  0.05764760  0.97338920     0.11000
H319        H  0.94422187  0.16866300  0.06756226     0.11200
H320        H  0.90419994  0.21831132  0.05003774     0.10000
C321        C  0.74899559  0.46064821  0.89547959    -0.03800
C322        C  0.71461316  0.47862108  0.89452987    -0.09600
C323        C  0.74029624  0.53705440  0.90213656    -0.17300
C324        C  0.80069554  0.57806525  0.91018595     0.24900
C325        C  0.83611321  0.56166397  0.90825368    -0.18900
C326        C  0.81062905  0.50358616  0.90063354    -0.07800
C327        C  0.82533289  0.63491579  0.92399634    -0.14300
C328        C  0.84582778  0.68042363  0.93885327    -0.14000
C329        C  0.86772898  0.73214087  0.95900549     0.24800
C330        C  0.92708705  0.77124204  0.96947404    -0.19400
C331        C  0.94750793  0.82073278  0.98984788    -0.07900
C332        C  0.90856832  0.83138680  0.00005714    -0.04000
C333        C  0.84894944  0.79150113  0.98950984    -0.09300
C334        C  0.82878103  0.74233344  0.96917424    -0.16900
H335        H  0.66747874  0.44707638  0.89011503     0.11200
H336        H  0.71252631  0.54947293  0.90337459     0.10500
H337        H  0.88297536  0.59310688  0.91413714     0.10500
H338        H  0.83889875  0.49175487  0.90019864     0.11000
H339        H  0.95749070  0.76342115  0.96196216     0.11000
H340        H  0.99357088  0.85053225  0.99757786     0.11000
H341        H  0.81773584  0.79833029  0.99683172     0.11200
H342        H  0.78268968  0.71215514  0.96144897     0.10000
C343        C  0.18219431  0.10605351  0.01944651    -0.03800
C344        C  0.17924132  0.07426312  0.98961864    -0.09600
C345        C  0.22884200  0.09984473  0.96526791    -0.17300
C346        C  0.28169529  0.15764252  0.97017781     0.24900
C347        C  0.28416839  0.19023333  0.99893598    -0.18900
C348        C  0.23494001  0.16471094  0.02338502    -0.07800
C349        C  0.33497839  0.18203299  0.94793625    -0.14300
C350        C  0.38212502  0.20236378  0.93279736    -0.14000
C351        C  0.44039881  0.22531899  0.91922435     0.24800
C352        C  0.48456235  0.28572771  0.90919163    -0.19400
C353        C  0.54305343  0.30896556  0.90066077    -0.07900
C354        C  0.55832608  0.27229796  0.90266105    -0.04000
C355        C  0.51298317  0.21117262  0.91101025    -0.09300
C356        C  0.45455634  0.18794749  0.91924525    -0.16900
H357        H  0.13952354  0.02888456  0.98601221     0.11200
H358        H  0.22651463  0.07395773  0.94330251     0.10500
H359        H  0.32481741  0.23485438  0.00316687     0.10500
H360        H  0.23869649  0.19050044  0.04595087     0.11000
H361        H  0.47428229  0.31522262  0.90916734     0.11000
H362        H  0.57659936  0.35596579  0.89425993     0.11000
H363        H  0.52291127  0.18142022  0.91191680     0.11200
H364        H  0.42081570  0.14109993  0.92683410     0.10000
loop_ 
_geom_bond_atom_site_label_1 
_geom_bond_atom_site_label_2 
_geom_bond_distance 
_geom_bond_site_symmetry_2 
_ccdc_geom_bond_type 
C1            C2   1.531       .  S
C1            C7   1.535       .  S
C1            C5   1.533       .  S
C1          C299   1.535       .  S
C2            H9   1.086       .  S
C2            C3   1.370       .  D
C3            C4   1.547       .  S
C3          C354   1.490       .  S
C4            C8   1.542       .  S
C4            C6   1.545       .  S
C4           H10   1.105       .  S
C5           H11   1.081       .  S
C5            C6   1.374       .  D
C6           C18   1.501       .  S
C7           H12   1.079       .  S
C7            C8   1.364       .  D
C8          C321   1.487       .  S
C13          C14   1.538       .  S
C13          C19   1.528       .  S
C13          C17   1.526       .  S
C13         C233   1.524       .  S
C14          H21   1.081       .  S
C14          C15   1.370       .  D
C15          C16   1.546       .  S
C15         C255   1.490       .  S
C16          C20   1.545       .  S
C16          C18   1.551       .  S
C16          H22   1.105       .  S
C17          H23   1.082       .  S
C17          C18   1.370       .  D
C19          H24   1.086       .  S
C19          C20   1.364       .  D
C20         C277   1.488       .  S
C25          C26   1.532       .  S
C25          C31   1.535       .  S
C25          C29   1.530       .  S
C25         C222   1.533       .  S
C26          H33   1.081       .  S
C26          C27   1.374       .  D
C27          C28   1.546       .  S
C27          C39   1.503       .  S
C28          C32   1.542       .  S
C28          C30   1.549       .  S
C28          H34   1.105       .  S
C29          H35   1.085       .  S
C29          C30   1.370       .  D
C30         C189   1.492       .  S
C31          H36   1.080       .  S
C31          C32   1.363       .  D
C32         C167   1.484       .  S
C37          C38   1.525       .  S
C37          C43   1.528       .  S
C37          C41   1.541       .  S
C37         C134   1.528       .  S
C38          H45   1.081       .  S
C38          C39   1.370       .  D
C39          C40   1.552       .  S
C40          C44   1.548       .  S
C40          C42   1.547       .  S
C40          H46   1.105       .  S
C41          H47   1.081       .  S
C41          C42   1.371       .  D
C42         C145   1.492       .  S
C43          H48   1.085       .  S
C43          C44   1.366       .  D
C44         C112   1.492       .  S
O49         Ni55   1.924       .  S
O49          C70   1.270       .  A
O50         Ni73   1.914   1_455  S
O50          C59   1.269       .  A
O51         Ni55   1.906   1_545  S
O51         Ni73   1.909       .  S
O51         Ni67   1.917   1_645  S
O51          H74   0.966   1_655  S
C52          O69   1.278       .  A
C52          O61   1.277   1_565  A
C52         C211   1.484       .  S
O53         Ni72   1.923       .  S
O53          C59   1.270       .  A
O54         Ni72   1.904       .  S
O54          C56   1.269       .  A
Ni55         O58   1.920   1_565  S
Ni55         O60   1.904       .  S
C56          O66   1.273       .  A
C56         C343   1.485       .  S
O57         Ni73   1.924       .  S
O57          C63   1.278       .  A
O58          C63   1.277       .  A
C59         C178   1.482       .  S
O60          C62   1.269       .  A
O61         Ni72   1.920       .  S
C62          O68   1.272   1_565  A
C62         C200   1.483       .  S
C63         C310   1.485       .  S
H64          O65   0.966   1_655  S
O65         Ni73   1.915   1_455  S
O65         Ni67   1.907   1_545  S
O65         Ni72   1.902       .  S
O66         Ni67   1.934   1_545  S
Ni67         O71   1.913   1_455  S
Ni67         O69   1.924       .  S
O68         Ni73   1.929       .  S
C70          O71   1.269       .  A
C70         C332   1.481       .  S
O75         Ni81   1.923       .  S
O75          C96   1.270       .  A
O76         Ni99   1.920   1_565  S
O76          C85   1.271       .  A
O77         Ni81   1.899       .  S
O77         Ni99   1.909   1_455  S
O77         Ni93   1.913       .  S
O77         H100   0.966   1_455  S
C78          O95   1.279       .  A
C78          O87   1.277       .  A
C78         C123   1.481       .  S
O79         Ni98   1.923       .  S
O79          C85   1.270       .  A
O80         Ni98   1.907       .  S
O80          C82   1.269       .  A
Ni81         O84   1.915   1_455  S
Ni81         O86   1.904       .  S
C82          O92   1.272       .  A
C82         C266   1.486       .  S
O83         Ni99   1.918       .  S
O83          C89   1.277       .  A
O84          C89   1.276       .  A
C85         C101   1.486       .  S
O86          C88   1.269       .  A
O87         Ni98   1.916   1_455  S
C88          O94   1.275       .  A
C88         C156   1.490       .  S
C89         C244   1.479       .  S
H90          O91   0.966   1_445  S
O91         Ni99   1.909   1_565  S
O91         Ni93   1.909   1_665  S
O91         Ni98   1.900       .  S
O92         Ni93   1.932   1_665  S
Ni93         O97   1.920       .  S
Ni93         O95   1.924   1_545  S
O94         Ni99   1.939   1_455  S
C96          O97   1.271       .  A
C96         C288   1.485       .  S
C101        C102   1.409       .  A
C101        C106   1.407       .  A
C102        C103   1.396       .  A
C102        H115   1.083       .  S
C103        C104   1.397       .  A
C103        H116   1.084       .  S
C104        C105   1.403       .  A
C104        C107   1.444       .  S
C105        C106   1.404       .  A
C105        H117   1.083       .  S
C106        H118   1.083   1_565  S
C107        C108   1.208       .  T
C108        C109   1.443       .  S
C109        C110   1.404       .  A
C109        C114   1.395       .  A
C110        C111   1.406       .  A
C110        H119   1.083       .  S
C111        C112   1.408       .  A
C111        H120   1.083       .  S
C112        C113   1.409       .  A
C113        C114   1.392       .  A
C113        H121   1.082       .  S
C114        H122   1.084       .  S
C123        C124   1.408       .  A
C123        C128   1.407       .  A
C124        C125   1.394       .  A
C124        H137   1.083       .  S
C125        C126   1.397       .  A
C125        H138   1.084       .  S
C126        C127   1.401       .  A
C126        C129   1.438       .  S
C127        C128   1.402       .  A
C127        H139   1.083       .  S
C128        H140   1.083       .  S
C129        C130   1.205       .  T
C130        C131   1.438       .  S
C131        C132   1.395       .  A
C131        C136   1.400       .  A
C132        C133   1.395       .  A
C132        H141   1.084       .  S
C133        C134   1.412       .  A
C133        H142   1.083       .  S
C134        C135   1.411       .  A
C135        C136   1.400       .  A
C135        H143   1.077       .  S
C136        H144   1.084       .  S
C145        C146   1.409       .  A
C145        C150   1.407       .  A
C146        C147   1.399       .  A
C146        H159   1.083       .  S
C147        C148   1.400       .  A
C147        H160   1.084       .  S
C148        C149   1.402       .  A
C148        C151   1.447       .  S
C149        C150   1.403       .  A
C149        H161   1.083       .  S
C150        H162   1.082       .  S
C151        C152   1.210       .  T
C152        C153   1.446       .  S
C153        C154   1.398       .  A
C153        C158   1.403       .  A
C154        C155   1.396       .  A
C154        H163   1.084       .  S
C155        C156   1.410       .  A
C155        H164   1.083       .  S
C156        C157   1.409       .  A
C157        C158   1.406       .  A
C157        H165   1.083       .  S
C158        H166   1.083       .  S
C167        C168   1.408       .  A
C167        C172   1.403       .  A
C168        C169   1.395       .  A
C168        H181   1.083       .  S
C169        C170   1.397       .  A
C169        H182   1.084       .  S
C170        C171   1.403       .  A
C170        C173   1.440       .  S
C171        C172   1.402       .  A
C171        H183   1.083       .  S
C172        H184   1.080       .  S
C173        C174   1.206       .  T
C174        C175   1.440       .  S
C175        C176   1.397       .  A
C175        C180   1.402       .  A
C176        C177   1.395       .  A
C176        H185   1.084       .  S
C177        C178   1.408       .  A
C177        H186   1.083       .  S
C178        C179   1.407       .  A
C179        C180   1.402       .  A
C179        H187   1.083       .  S
C180        H188   1.083       .  S
C189        C190   1.407       .  A
C189        C194   1.409       .  A
C190        C191   1.401       .  A
C190        H203   1.079       .  S
C191        C192   1.400       .  A
C191        H204   1.083       .  S
C192        C193   1.398       .  A
C192        C195   1.442       .  S
C193        C194   1.397       .  A
C193        H205   1.084       .  S
C194        H206   1.082       .  S
C195        C196   1.207       .  T
C196        C197   1.442       .  S
C197        C198   1.401       .  A
C197        C202   1.399       .  A
C198        C199   1.401       .  A
C198        H207   1.083       .  S
C199        C200   1.408       .  A
C199        H208   1.083   1_565  S
C200        C201   1.408       .  A
C201        C202   1.397       .  A
C201        H209   1.083       .  S
C202        H210   1.084       .  S
C211        C212   1.408       .  A
C211        C216   1.409       .  A
C212        C213   1.402       .  A
C212        H225   1.083       .  S
C213        C214   1.402       .  A
C213        H226   1.083       .  S
C214        C215   1.397       .  A
C214        C217   1.441       .  S
C215        C216   1.395       .  A
C215        H227   1.084       .  S
C216        H228   1.083       .  S
C217        C218   1.207       .  T
C218        C219   1.441       .  S
C219        C220   1.399       .  A
C219        C224   1.396       .  A
C220        C221   1.399       .  A
C220        H229   1.083       .  S
C221        C222   1.411       .  A
C221        H230   1.083       .  S
C222        C223   1.414       .  A
C223        C224   1.398       .  A
C223        H231   1.076       .  S
C224        H232   1.084       .  S
C233        C234   1.411       .  A
C233        C238   1.411       .  A
C234        C235   1.393       .  A
C234        H247   1.083       .  S
C235        C236   1.394       .  A
C235        H248   1.084       .  S
C236        C237   1.399       .  A
C236        C239   1.434       .  S
C237        C238   1.398       .  A
C237        H249   1.084       .  S
C238        H250   1.077       .  S
C239        C240   1.202       .  T
C240        C241   1.433       .  S
C241        C242   1.395       .  A
C241        C246   1.400       .  A
C242        C243   1.391       .  A
C242        H251   1.084       .  S
C243        C244   1.408       .  A
C243        H252   1.083       .  S
C244        C245   1.408       .  A
C245        C246   1.400       .  A
C245        H253   1.083       .  S
C246        H254   1.083       .  S
C255        C256   1.407       .  A
C255        C260   1.408       .  A
C256        C257   1.394       .  A
C256        H269   1.082       .  S
C257        C258   1.397       .  A
C257        H270   1.084       .  S
C258        C259   1.403       .  A
C258        C261   1.443       .  S
C259        C260   1.405       .  A
C259        H271   1.083       .  S
C260        H272   1.083       .  S
C261        C262   1.208       .  T
C262        C263   1.444       .  S
C263        C264   1.401       .  A
C263        C268   1.399       .  A
C264        C265   1.403       .  A
C264        H273   1.083       .  S
C265        C266   1.409       .  A
C265        H274   1.083       .  S
C266        C267   1.408       .  A
C267        C268   1.398       .  A
C267        H275   1.083       .  S
C268        H276   1.084       .  S
C277        C278   1.407       .  A
C277        C282   1.408       .  A
C278        C279   1.406       .  A
C278        H291   1.083       .  S
C279        C280   1.404       .  A
C279        H292   1.083       .  S
C280        C281   1.396       .  A
C280        C283   1.443       .  S
C281        C282   1.393       .  A
C281        H293   1.084       .  S
C282        H294   1.082       .  S
C283        C284   1.208       .  T
C284        C285   1.443       .  S
C285        C286   1.397       .  A
C285        C290   1.403       .  A
C286        C287   1.396       .  A
C286        H295   1.084       .  S
C287        C288   1.409       .  A
C287        H296   1.083       .  S
C288        C289   1.407       .  A
C289        C290   1.404       .  A
C289        H297   1.083       .  S
C290        H298   1.083       .  S
C299        C300   1.416       .  A
C299        C304   1.411       .  A
C300        C301   1.398       .  A
C300        H313   1.075       .  S
C301        C302   1.396       .  A
C301        H314   1.084       .  S
C302        C303   1.399       .  A
C302        C305   1.442       .  S
C303        C304   1.400       .  A
C303        H315   1.083       .  S
C304        H316   1.083       .  S
C305        C306   1.207       .  T
C306        C307   1.442   1_556  S
C307        C308   1.398   1_554  A
C307        C312   1.402       .  A
C308        C309   1.396       .  A
C308        H317   1.084       .  S
C309        C310   1.408   1_556  A
C309        H318   1.083       .  S
C310        C311   1.409       .  A
C311        C312   1.403       .  A
C311        H319   1.083       .  S
C312        H320   1.083       .  S
C321        C322   1.404       .  A
C321        C326   1.409       .  A
C322        C323   1.401       .  A
C322        H335   1.078       .  S
C323        C324   1.402       .  A
C323        H336   1.083       .  S
C324        C325   1.396       .  A
C324        C327   1.437       .  S
C325        C326   1.393       .  A
C325        H337   1.084       .  S
C326        H338   1.083       .  S
C327        C328   1.205       .  T
C328        C329   1.438       .  S
C329        C330   1.402       .  A
C329        C334   1.397       .  A
C330        C331   1.401       .  A
C330        H339   1.083       .  S
C331        C332   1.407   1_556  A
C331        H340   1.083       .  S
C332        C333   1.409   1_554  A
C333        C334   1.395       .  A
C333        H341   1.083       .  S
C334        H342   1.084       .  S
C343        C344   1.408   1_554  A
C343        C348   1.408       .  A
C344        C345   1.403       .  A
C344        H357   1.083       .  S
C345        C346   1.402       .  A
C345        H358   1.083       .  S
C346        C347   1.399       .  A
C346        C349   1.444       .  S
C347        C348   1.398   1_556  A
C347        H359   1.084   1_556  S
C348        H360   1.083       .  S
C349        C350   1.208       .  T
C350        C351   1.443       .  S
C351        C352   1.401       .  A
C351        C356   1.399       .  A
C352        C353   1.402       .  A
C352        H361   1.083       .  S
C353        C354   1.406       .  A
C353        H362   1.078       .  S
C354        C355   1.408       .  A
C355        C356   1.398       .  A
C355        H363   1.083       .  S
C356        H364   1.084       .  S
