geometry optimzed in LAMMPS
_audit_creation_date              2020-12-01 
_audit_creation_method            'lammps2cif' 
_symmetry_space_group_name_H-M    'P1' 
_symmetry_Int_Tables_number       1 
_symmetry_cell_setting            triclinic 
loop_ 
_symmetry_equiv_pos_as_xyz 
  x,y,z 
_cell_length_a                    24.96863134 
_cell_length_b                    25.99726431931943 
_cell_length_c                    26.03195219587247 
_cell_angle_alpha                 94.72110579061389 
_cell_angle_beta                  90.00353833782525 
_cell_angle_gamma                 90.01122956776224 
loop_ 
_atom_site_label 
_atom_site_type_symbol 
_atom_site_fract_x 
_atom_site_fract_y 
_atom_site_fract_z 
_atom_site_charge 
C1          C  0.19471982  0.19777135  0.20762902     0.89000
C2          C  0.23097157  0.16870738  0.24362253    -0.51200
C3          C  0.26288411  0.20073417  0.27492872     0.11900
C4          C  0.25515469  0.25835935  0.26768834     0.22900
C5          C  0.16297229  0.23677746  0.24347809    -0.52000
C6          C  0.19478391  0.26858302  0.27481188     0.12000
C7          C  0.23339136  0.23086218  0.17851918    -0.51500
C8          C  0.26492192  0.26235427  0.21004907     0.12600
H9          H  0.23269155  0.12691866  0.24296623     0.17100
H10         H  0.28105697  0.28444760  0.29293474     0.02900
H11         H  0.11962065  0.24014189  0.24278456     0.17400
H12         H  0.23559604  0.22957962  0.13673443     0.17200
C13         C  0.16040987  0.40116946  0.36525406     0.32500
C14         C  0.16069005  0.49333983  0.42181645     0.32500
C15         C  0.18766886  0.44524221  0.33959836    -0.03700
C16         C  0.10496557  0.42353343  0.37910815    -0.04500
C17         C  0.18799030  0.40126874  0.41784549    -0.04300
C18         C  0.18787242  0.49313931  0.36901418    -0.03700
C19         C  0.10506493  0.47112403  0.40826657    -0.04500
C20         C  0.18801109  0.44914389  0.44735170    -0.04300
C21         C  0.18660313  0.53061105  0.33429203    -0.29700
N22         N  0.18689790  0.50754089  0.28592903     0.16800
C23         C  0.18627501  0.45593160  0.28843352    -0.29700
H24         H  0.18002990  0.42816324  0.25563922     0.18700
C25         C  0.05252555  0.48526123  0.41658618    -0.28700
N26         N  0.02117226  0.44757822  0.39334317     0.15500
C27         C  0.05243618  0.40972833  0.37036413    -0.28700
C28         C  0.18674297  0.43825439  0.49849667    -0.29000
N29         N  0.18736758  0.38659866  0.50084325     0.16000
H30         H  0.18045169  0.46590978  0.53137132     0.18600
C31         C  0.18691659  0.36368845  0.45242846    -0.29000
H32         H  0.18078407  0.32277548  0.44293187     0.18600
H33         H  0.03795995  0.37503745  0.34895685     0.18600
H34         H  0.18066775  0.57156539  0.34367617     0.18700
H35         H  0.03811367  0.52011750  0.43773101     0.18600
C36         C  0.19511770  0.69774088  0.57778539     0.89000
C37         C  0.23231205  0.72661337  0.54250848    -0.51200
C38         C  0.26458898  0.69441289  0.51180239     0.11900
C39         C  0.25621094  0.63678472  0.51889581     0.22900
C40         C  0.16377267  0.65892810  0.54141817    -0.52000
C41         C  0.19589209  0.62684856  0.51075776     0.12000
C42         C  0.23286949  0.66442801  0.60765231    -0.51500
C43         C  0.26471187  0.63269010  0.57670813     0.12600
H44         H  0.23427482  0.76839320  0.54313864     0.17100
H45         H  0.28237512  0.61051399  0.49413537     0.02900
H46         H  0.12039837  0.65567505  0.54151910     0.17400
H47         H  0.23406529  0.66556445  0.64946819     0.17200
C48         C  0.38904159  0.16038159  0.36685390     0.32500
C49         C  0.47589384  0.14150408  0.42592989     0.32500
C50         C  0.39136770  0.19151255  0.41953764    -0.03700
C51         C  0.39502906  0.10476845  0.38125493    -0.04500
C52         C  0.44369806  0.17159380  0.34357262    -0.04300
C53         C  0.43665988  0.18177929  0.45000288    -0.03700
C54         C  0.43946083  0.09531282  0.41163716    -0.04500
C55         C  0.48808125  0.16193289  0.37385778    -0.04300
C56         C  0.42115745  0.19002178  0.50065466    -0.29700
N57         N  0.36952772  0.20474036  0.50197213     0.16800
C58         C  0.35042962  0.20469524  0.45352126    -0.29700
H59         H  0.30848444  0.20820209  0.44381456     0.18700
C60         C  0.43814163  0.04429289  0.42093843    -0.28700
N61         N  0.39444560  0.02277633  0.39701418     0.15500
C62         C  0.36769671  0.05892842  0.37245839    -0.28700
C63         C  0.53239278  0.18044234  0.35013609    -0.29000
N64         N  0.51587535  0.20057408  0.30646515     0.16000
H65         H  0.57310911  0.18129360  0.36451252     0.18600
C66         C  0.46201493  0.19569460  0.30189039    -0.29000
H67         H  0.43798510  0.21055412  0.27181847     0.18600
H68         H  0.33212787  0.05202181  0.34911445     0.18600
H69         H  0.44382602  0.18008483  0.53390802     0.18700
H70         H  0.46745745  0.02387540  0.44219251     0.18600
C71         C  0.68588539  0.26202363  0.14395499     0.89000
C72         C  0.71841266  0.29745230  0.18266456    -0.51200
C73         C  0.68703114  0.32896558  0.21472408     0.11900
C74         C  0.62656367  0.32239310  0.20489036     0.22900
C75         C  0.64733475  0.23308512  0.17709487    -0.52000
C76         C  0.61646376  0.26472827  0.20887366     0.12000
C77         C  0.65007256  0.29827241  0.11515057    -0.51500
C78         C  0.61882567  0.32977336  0.14735409     0.12600
H79         H  0.76176803  0.29623892  0.18577465     0.17100
H80         H  0.60100156  0.34783037  0.23110837     0.02900
H81         H  0.64491054  0.19124241  0.17584157     0.17400
H82         H  0.64814591  0.29772264  0.07342026     0.17200
C83         C  0.21132189  0.24796741  0.69131491     0.89000
C84         C  0.17811687  0.28025015  0.65558724    -0.51200
C85         C  0.20928977  0.30826077  0.62494405     0.11900
C86         C  0.26934115  0.30166402  0.63270093     0.22900
C87         C  0.24841644  0.21506152  0.65493035    -0.52000
C88         C  0.27841611  0.24367650  0.62449763     0.12000
C89         C  0.24868125  0.28689825  0.72171237    -0.51500
C90         C  0.27895804  0.31490052  0.69012638     0.12600
H91         H  0.13468771  0.27944061  0.65336959     0.17100
H92         H  0.29436835  0.32426347  0.60722559     0.04600
H93         H  0.24964933  0.17312988  0.65234473     0.17400
H94         H  0.25173073  0.29098308  0.76345580     0.17200
C95         C  0.72163008  0.47448171  0.43980824     0.32500
C96         C  0.72141306  0.41795419  0.34779053     0.32500
C97         C  0.69388675  0.50003184  0.39594201    -0.03700
C98         C  0.77703851  0.46104558  0.41729836    -0.04500
C99         C  0.69439866  0.42166549  0.43972726    -0.04300
C100        C  0.69375985  0.47059480  0.34807491    -0.03700
C101        C  0.77695089  0.43184758  0.36983739    -0.04500
C102        C  0.69426936  0.39225497  0.39189864    -0.04300
C103        C  0.69450210  0.50534454  0.31066812    -0.29700
N104        N  0.69377914  0.55374334  0.33373442     0.16800
C105        C  0.69468060  0.55126814  0.38527907    -0.29700
H106        H  0.70088343  0.58414694  0.41296682     0.18700
C107        C  0.82946069  0.42359081  0.35564430    -0.28700
N108        N  0.86081500  0.44702906  0.39316353     0.15500
C109        C  0.82955683  0.47001993  0.43097583    -0.28700
C110        C  0.69480689  0.34100970  0.40253561    -0.29000
N111        N  0.69397917  0.33853589  0.45410276     0.16000
H112        H  0.70052319  0.30808520  0.37480362     0.18600
C113        C  0.69509612  0.38694789  0.47716364    -0.29000
H114        H  0.70110914  0.39627400  0.51806856     0.18600
H115        H  0.84402994  0.49151580  0.46558751     0.18600
H116        H  0.70055504  0.49601654  0.26976982     0.18700
H117        H  0.84385261  0.40231678  0.32088067     0.18600
C118        C  0.67509195  0.74645036  0.19708343     0.89000
C119        C  0.63903219  0.71091772  0.16185645    -0.51200
C120        C  0.60704863  0.68001602  0.18833206     0.11900
C121        C  0.61344552  0.68699164  0.24672261     0.22900
C122        C  0.63607817  0.77639099  0.23507645    -0.52000
C123        C  0.60385318  0.74438742  0.26102706     0.12000
C124        C  0.70592877  0.70962716  0.23000392    -0.51500
C125        C  0.67305852  0.67860667  0.25577234     0.12600
H126        H  0.63994786  0.70920187  0.12001331     0.17100
H127        H  0.58715393  0.66111217  0.26760664     0.02900
H128        H  0.63391159  0.81819034  0.24046728     0.17400
H129        H  0.74932341  0.70710936  0.23132974     0.17200
C130        C  0.67249302  0.14554352  0.59029614     0.89000
C131        C  0.63647521  0.18116937  0.62544270    -0.51200
C132        C  0.60488972  0.21235194  0.59890891     0.11900
C133        C  0.61159025  0.20558524  0.54055488     0.22900
C134        C  0.63345059  0.11597711  0.55198625    -0.52000
C135        C  0.60161354  0.14830319  0.52599195     0.12000
C136        C  0.70378775  0.18232765  0.55766222    -0.51500
C137        C  0.67130978  0.21365877  0.53183458     0.12600
H138        H  0.63709692  0.18270032  0.66728315     0.17100
H139        H  0.58561263  0.23171937  0.51965558     0.02900
H140        H  0.63095552  0.07420145  0.54646543     0.17400
H141        H  0.74720602  0.18458473  0.55656116     0.17200
C142        C  0.39140139  0.73433792  0.42035177     0.32500
C143        C  0.47815043  0.75257789  0.36097316     0.32500
C144        C  0.39472325  0.70119416  0.36883130    -0.03700
C145        C  0.39622896  0.78924803  0.40364420    -0.04500
C146        C  0.44612576  0.72535909  0.44455365    -0.04300
C147        C  0.43998658  0.71061143  0.33818311    -0.03700
C148        C  0.44062196  0.79836251  0.37310194    -0.04500
C149        C  0.49049994  0.73472375  0.41410116    -0.04300
C150        C  0.42472998  0.70057187  0.28761353    -0.29700
N151        N  0.37331780  0.68512511  0.28649193     0.16800
C152        C  0.35412191  0.68635932  0.33498512    -0.29700
H153        H  0.31214248  0.68303076  0.34463910     0.18700
C154        C  0.43865192  0.84892792  0.36222543    -0.28700
N155        N  0.39456937  0.87052393  0.38533755     0.15500
C156        C  0.36825641  0.83485705  0.41095392    -0.28700
C157        C  0.53468260  0.71550421  0.43744738    -0.29000
N158        N  0.51813354  0.69539223  0.48109283     0.16000
H159        H  0.57514169  0.71346447  0.42243049     0.18600
C160        C  0.46436112  0.70068823  0.48588441    -0.29000
H161        H  0.44021821  0.68505486  0.51543797     0.18600
H162        H  0.33276392  0.84207015  0.43433011     0.18600
H163        H  0.44717808  0.71025303  0.25413113     0.18700
H164        H  0.46799971  0.86912200  0.34078754     0.18600
C165        C  0.21481874  0.64619742  0.09629207     0.89000
C166        C  0.18074769  0.61384589  0.13123581    -0.51200
C167        C  0.21111087  0.58487562  0.16164665     0.11900
C168        C  0.27135322  0.59058678  0.15439965     0.22900
C169        C  0.25218070  0.67799206  0.13345400    -0.52000
C170        C  0.28141868  0.64835309  0.16361505     0.12000
C171        C  0.25179553  0.60711465  0.06561943    -0.51500
C172        C  0.28130461  0.57810856  0.09690973     0.12600
H173        H  0.13733007  0.61544367  0.13329430     0.17100
H174        H  0.29572268  0.56715878  0.17965665     0.02900
H175        H  0.25417103  0.71990072  0.13667135     0.17400
H176        H  0.25522099  0.60369207  0.02389881     0.17200
C177        C  0.68496021  0.62963314  0.64395435     0.89000
C178        C  0.71790114  0.59434845  0.60549260    -0.51200
C179        C  0.68683829  0.56337687  0.57260588     0.11900
C180        C  0.62625809  0.57030897  0.58142679     0.22900
C181        C  0.64738311  0.65923134  0.61051136    -0.52000
C182        C  0.61686911  0.62813845  0.57788564     0.12000
C183        C  0.64824594  0.59335303  0.67173379    -0.51500
C184        C  0.61732980  0.56239468  0.63869699     0.12600
H185        H  0.76132262  0.59524884  0.60317926     0.17100
H186        H  0.60095430  0.54532685  0.55452261     0.02900
H187        H  0.64532071  0.70111487  0.61219295     0.17400
H188        H  0.64553448  0.59347258  0.71339187     0.17200
C189        C  0.49386243  0.42148367  0.10665136     0.32500
C190        C  0.40675559  0.47980578  0.08849990     0.32500
C191        C  0.49295263  0.47529885  0.13575543    -0.03700
C192        C  0.48581206  0.43347092  0.05051661    -0.04500
C193        C  0.43972198  0.39885505  0.12086777    -0.04300
C194        C  0.44755724  0.50553020  0.12632764    -0.03700
C195        C  0.44104116  0.46348547  0.04155820    -0.04500
C196        C  0.39516342  0.42883479  0.11147554    -0.04300
C197        C  0.46346537  0.55638708  0.13268327    -0.29700
N198        N  0.51552731  0.55796566  0.14629965     0.16800
C199        C  0.53436266  0.50939298  0.14711936    -0.29700
H200        H  0.57626958  0.49950710  0.15053802     0.18700
C201        C  0.44101770  0.47234868  0.99053973    -0.28700
N202        N  0.48441455  0.44860157  0.96839025     0.15500
C203        C  0.51221067  0.42444372  0.00417328    -0.28700
C204        C  0.35099817  0.40453990  0.12955205    -0.29000
N205        N  0.36777814  0.36079237  0.14943949     0.16000
H206        H  0.30999164  0.41807367  0.12935434     0.18600
C207        C  0.42172641  0.35667540  0.14458789    -0.29000
H208        H  0.44590133  0.32604123  0.15824742     0.18600
H209        H  0.54844114  0.40215338  0.99693867     0.18600
H210        H  0.44041231  0.58946954  0.12285676     0.18700
H211        H  0.41163572  0.49416296  0.97079057     0.18600
C212        C  0.49172069  0.47085317  0.67845421     0.32500
C213        C  0.40469043  0.41271633  0.69719557     0.32500
C214        C  0.49055733  0.41704823  0.64935348    -0.03700
C215        C  0.48408133  0.45888529  0.73463374    -0.04500
C216        C  0.43754468  0.49357174  0.66462061    -0.04300
C217        C  0.44515200  0.38687294  0.65907926    -0.03700
C218        C  0.43935799  0.42893721  0.74389624    -0.04500
C219        C  0.39298792  0.46370334  0.67428493    -0.04300
C220        C  0.46111451  0.33601842  0.65313759    -0.29700
N221        N  0.51317253  0.33437330  0.63956565     0.16800
C222        C  0.53197036  0.38290103  0.63828449    -0.29700
H223        H  0.57389261  0.39277786  0.63493483     0.18700
C224        C  0.43985932  0.41983229  0.79485634    -0.28700
N225        N  0.48351746  0.44342403  0.81667736     0.15500
C226        C  0.51095898  0.46770099  0.78074161    -0.28700
C227        C  0.34871143  0.48834021  0.65682728    -0.29000
N228        N  0.36549605  0.53219364  0.63710597     0.16000
H229        H  0.30763118  0.47504787  0.65745102     0.18600
C230        C  0.41949785  0.53600597  0.64142213    -0.29000
H231        H  0.44365949  0.56670435  0.62785707     0.18600
H232        H  0.54732302  0.48986681  0.78770204     0.18600
H233        H  0.43814439  0.30303881  0.66339462     0.18700
H234        H  0.41069711  0.39791153  0.81477179     0.18600
N235        N  0.00284718  0.04572033  0.95539252    -0.03600
N236        N  0.01073029  0.08059239  0.99470566    -0.55700
N237        N  0.04218904  0.00627504  0.83688927    -0.03300
N238        N  0.08204627  0.02027568  0.80754298    -0.57800
N239        N  0.00334602  0.04045535  0.83713311    -0.02900
N240        N  0.01577069  0.07775536  0.80792481    -0.55700
N241        N  0.04017226  0.00974851  0.95479099    -0.02600
N242        N  0.07403848  0.01952309  0.99343691    -0.58200
C243        C  0.05502462  0.06355065  0.01817218     0.98600
C244        C  0.06447846  0.06445552  0.78898045     0.98400
N245        N  0.00280806  0.84660163  0.83031841    -0.03800
N246        N  0.01019680  0.81212598  0.79059147    -0.56300
N247        N  0.04334373  0.88614886  0.94858444    -0.01900
N248        N  0.08357781  0.87256010  0.97770540    -0.57600
N249        N  0.00487303  0.85157881  0.94856594    -0.03800
N250        N  0.01795287  0.81438249  0.97769347    -0.56600
N251        N  0.03985045  0.88282785  0.83066078    -0.01500
N252        N  0.07304345  0.87364831  0.79140815    -0.57600
Mn253      Mn  0.04277083  0.94624184  0.89274246     1.18400
C254        C  0.05389751  0.82971985  0.76661311     1.00700
C255        C  0.06665661  0.82819850  0.99637451     1.01300
N256        N  0.87600102  0.03683185  0.83321212    -0.03800
N257        N  0.86767171  0.06534790  0.79398986    -0.60100
N258        N  0.83811035  0.01239235  0.95230866    -0.02600
N259        N  0.80132770  0.02732122  0.98703468    -0.60800
N260        N  0.87646250  0.04701905  0.95242339    -0.03300
N261        N  0.86700239  0.08569750  0.98715655    -0.60400
N262        N  0.83909875  0.00056999  0.83354561    -0.02200
N263        N  0.80526176  0.00358536  0.79490310    -0.61100
Mn264      Mn  0.93953318  0.04365594  0.89439504     1.10700
C265        C  0.82358805  0.04385228  0.77040424     1.01900
C266        C  0.82055958  0.07272241  0.00899446     1.02000
N267        N  0.87756042  0.85468595  0.95362900    -0.03400
N268        N  0.87012009  0.82639849  0.99316614    -0.58700
N269        N  0.83810087  0.87885249  0.83484975    -0.02700
N270        N  0.80108994  0.86377791  0.80041583    -0.55500
N271        N  0.87662929  0.84439671  0.83443535    -0.04000
N272        N  0.86703621  0.80568117  0.79976916    -0.58300
N273        N  0.84037947  0.89069981  0.95358788    -0.03000
N274        N  0.80722953  0.88774224  0.99275489    -0.55500
Mn275      Mn  0.94033884  0.84811297  0.89188745     1.20200
Mn276      Mn  0.83735519  0.94560255  0.89357271     1.10100
Cl277      Cl  0.94010276  0.94590231  0.89315916    -0.83400
C278        C  0.82628749  0.84779429  0.01725104     0.98900
C279        C  0.82032623  0.81846825  0.77830774     0.98700
C280        C  0.49460118  0.44641196  0.91556344    -0.10800
C281        C  0.49431026  0.44537923  0.86938428    -0.12300
C282        C  0.78815896  0.78041884  0.74948562    -0.16000
C283        C  0.76493816  0.74434497  0.72746567     0.08100
C284        C  0.73960364  0.70078277  0.70201993     0.09900
C285        C  0.71679106  0.66561674  0.67802982    -0.16800
C286        C  0.57570471  0.52916587  0.65587878    -0.10800
C287        C  0.53858191  0.50265135  0.66751345    -0.12300
C288        C  0.10242875  0.79056495  0.01513934    -0.16000
C289        C  0.12905378  0.75549242  0.02907010     0.08100
C290        C  0.15820493  0.71359541  0.04652971     0.09900
C291        C  0.18315647  0.68010779  0.06545196    -0.16800
C292        C  0.32217307  0.54126241  0.08031185    -0.10800
C293        C  0.35959626  0.51182183  0.07934257    -0.12300
C294        C  0.58012685  0.64884438  0.54263532    -0.10800
C295        C  0.55101154  0.66963573  0.51399493    -0.12300
C296        C  0.34239709  0.67783360  0.24202666    -0.10800
C297        C  0.31524891  0.66852062  0.20454170    -0.12300
C298        C  0.79640303  0.06319554  0.72665578    -0.16000
C299        C  0.77022267  0.07750080  0.69117592     0.08100
C300        C  0.73706557  0.09513176  0.65160953     0.09900
C301        C  0.70781612  0.11400207  0.62096543    -0.16800
C302        C  0.57154877  0.25240056  0.62237018    -0.10800
C303        C  0.54419612  0.28972068  0.63281407    -0.12300
C304        C  0.79969453  0.82835705  0.06120106    -0.16000
C305        C  0.77363561  0.81404581  0.09671584     0.08100
C306        C  0.74032175  0.79647415  0.13612943     0.09900
C307        C  0.71080108  0.77770853  0.16657546    -0.16800
C308        C  0.57372118  0.63995948  0.16475354    -0.10800
C309        C  0.54645306  0.60265544  0.15380054    -0.12300
C310        C  0.56241265  0.76026215  0.29806401    -0.10800
C311        C  0.52518251  0.76136591  0.32804368    -0.12300
C312        C  0.71878404  0.50536865  0.48990492    -0.10800
C313        C  0.70797926  0.53129528  0.52924380    -0.12300
C314        C  0.69444672  0.29318238  0.47973285    -0.10800
C315        C  0.68955129  0.25512571  0.50283014    -0.12300
C316        C  0.69079684  0.63713218  0.28496099    -0.10800
C317        C  0.69504375  0.59906890  0.30811690    -0.12300
C318        C  0.17901797  0.21486027  0.72232396    -0.16000
C319        C  0.15419598  0.18111415  0.74088465     0.08100
C320        C  0.12573735  0.13847729  0.75751270     0.09900
C321        C  0.09975065  0.10270806  0.77074595    -0.16800
C322        C  0.32005170  0.35158788  0.70638873    -0.10800
C323        C  0.35757680  0.38085859  0.70683551    -0.12300
C324        C  0.71803635  0.22551149  0.11067109    -0.16000
C325        C  0.74081503  0.19020711  0.08681506     0.08100
C326        C  0.76582982  0.14661108  0.06100402     0.09900
C327        C  0.78868069  0.11057679  0.03846510    -0.16800
C328        C  0.54075673  0.38961200  0.11733675    -0.10800
C329        C  0.57772585  0.36302138  0.12920575    -0.12300
C330        C  0.71835403  0.38706755  0.29768177    -0.10800
C331        C  0.70767969  0.36116306  0.25827510    -0.12300
C332        C  0.38447509  0.96979700  0.39255542    -0.10800
C333        C  0.38449548  0.92347870  0.38909195    -0.12300
C334        C  0.52291790  0.13231190  0.45877208    -0.10800
C335        C  0.56011682  0.13291687  0.48879162    -0.12300
C336        C  0.33882087  0.21213279  0.54651398    -0.10800
C337        C  0.31192840  0.22222810  0.58398109    -0.12300
C338        C  0.54913777  0.22502435  0.27280752    -0.10800
C339        C  0.57883565  0.24478769  0.24386896    -0.12300
C340        C  0.16071764  0.73095008  0.61299477    -0.16000
C341        C  0.13383676  0.75478458  0.64569803     0.08100
C342        C  0.10395342  0.78078555  0.68659621     0.09900
C343        C  0.08007267  0.80268761  0.72263745    -0.16800
C344        C  0.33203503  0.56752465  0.61507830    -0.10800
C345        C  0.30210808  0.59748197  0.59694466    -0.12300
C346        C  0.30697729  0.71239770  0.47936246    -0.10800
C347        C  0.34449527  0.72376496  0.45287472    -0.12300
C348        C  0.96510685  0.44760379  0.39313335    -0.10800
C349        C  0.91687276  0.44737008  0.39302191    -0.12300
C350        C  0.18574197  0.36070894  0.54600557    -0.10800
C351        C  0.19003894  0.33729586  0.58391039    -0.12300
C352        C  0.19093127  0.55620930  0.20255038    -0.10800
C353        C  0.18588035  0.53317011  0.24060738    -0.12300
C354        C  0.16434376  0.54359530  0.45266077    -0.10800
C355        C  0.17566634  0.58303206  0.47840752    -0.12300
C356        C  0.08168212  0.09114989  0.06167325    -0.16000
C357        C  0.10546479  0.11367015  0.09751315     0.08100
C358        C  0.13472839  0.14039593  0.13855465     0.09900
C359        C  0.16088802  0.16459556  0.17166887    -0.16800
C360        C  0.30357680  0.29674946  0.19040937    -0.10800
C361        C  0.33420216  0.32598194  0.17210761    -0.12300
C362        C  0.30473667  0.18261521  0.30786133    -0.10800
C363        C  0.34210416  0.17122275  0.33450807    -0.12300
C364        C  0.16351880  0.35104728  0.33413545    -0.10800
C365        C  0.17442036  0.31192536  0.30771417    -0.12300
loop_ 
_geom_bond_atom_site_label_1 
_geom_bond_atom_site_label_2 
_geom_bond_distance 
_geom_bond_site_symmetry_2 
_ccdc_geom_bond_type 
C1            C2   1.544       .  S
C1            C7   1.534       .  S
C1            C5   1.540       .  S
C1          C359   1.483       .  S
C2            H9   1.086       .  S
C2            C3   1.371       .  D
C3            C4   1.537       .  S
C3          C362   1.454       .  S
C4            C8   1.532       .  S
C4            C6   1.539       .  S
C4           H10   1.112       .  S
C5           H11   1.086       .  S
C5            C6   1.367       .  D
C6          C365   1.450       .  S
C7           H12   1.087       .  S
C7            C8   1.361       .  D
C8          C360   1.438       .  S
C13         C364   1.479       .  S
C13          C15   1.532       .  S
C13          C17   1.532       .  S
C13          C16   1.533       .  S
C14         C354   1.479       .  S
C14          C18   1.533       .  S
C14          C20   1.534       .  S
C14          C19   1.534       .  S
C15          C23   1.383       .  A
C15          C18   1.407       .  A
C16          C27   1.374       .  A
C16          C19   1.397       .  A
C17          C31   1.382       .  A
C17          C20   1.408       .  A
C18          C21   1.383       .  A
C19          C25   1.375       .  A
C20          C28   1.384       .  A
C21          N22   1.349       .  A
C21          H34   1.083       .  S
N22          C23   1.349       .  A
N22         C353   1.402       .  S
C23          H24   1.083       .  S
C25          N26   1.357       .  A
C25          H35   1.082       .  S
N26          C27   1.356       .  A
N26         C348   1.400   1_455  S
C27          H33   1.082       .  S
C28          N29   1.349       .  A
C28          H30   1.083       .  S
N29          C31   1.349       .  A
N29         C350   1.403       .  S
C31          H32   1.083       .  S
C36          C37   1.544       .  S
C36          C42   1.534       .  S
C36          C40   1.539       .  S
C36         C340   1.481       .  S
C37          H44   1.086       .  S
C37          C38   1.371       .  D
C38          C39   1.539       .  S
C38         C346   1.455       .  S
C39          C43   1.532       .  S
C39          C41   1.540       .  S
C39          H45   1.112       .  S
C40          H46   1.086       .  S
C40          C41   1.366       .  D
C41         C355   1.450       .  S
C42          H47   1.087       .  S
C42          C43   1.361       .  D
C43         C345   1.438       .  S
C48         C363   1.484       .  S
C48          C50   1.535       .  S
C48          C52   1.531       .  S
C48          C51   1.531       .  S
C49         C334   1.483       .  S
C49          C53   1.530       .  S
C49          C55   1.527       .  S
C49          C54   1.528       .  S
C50          C58   1.377       .  A
C50          C53   1.416       .  A
C51          C62   1.376       .  A
C51          C54   1.396       .  A
C52          C66   1.375       .  A
C52          C55   1.395       .  A
C53          C56   1.374       .  A
C54          C60   1.368       .  A
C55          C63   1.373       .  A
C56          N57   1.344       .  A
C56          H69   1.083       .  S
N57          C58   1.348       .  A
N57         C336   1.390       .  S
C58          H59   1.083       .  S
C60          N61   1.354       .  A
C60          H70   1.083       .  S
N61          C62   1.355       .  A
N61         C332   1.395   1_545  S
C62          H68   1.083       .  S
C63          N64   1.354       .  A
C63          H65   1.083       .  S
N64          C66   1.355       .  A
N64         C338   1.398       .  S
C66          H67   1.083       .  S
C71          C72   1.540       .  S
C71          C77   1.538       .  S
C71          C75   1.531       .  S
C71         C324   1.470       .  S
C72          H79   1.086       .  S
C72          C73   1.367       .  D
C73          C74   1.538       .  S
C73         C331   1.448       .  S
C74          C78   1.538       .  S
C74          C76   1.532       .  S
C74          H80   1.112       .  S
C75          H81   1.087       .  S
C75          C76   1.358       .  D
C76         C339   1.435       .  S
C77          H82   1.086       .  S
C77          C78   1.367       .  D
C78         C329   1.446       .  S
C83          C84   1.544       .  S
C83          C89   1.545       .  S
C83          C87   1.534       .  S
C83         C318   1.469       .  S
C84          H91   1.086       .  S
C84          C85   1.367       .  D
C85          C86   1.525       .  S
C85         C351   1.440       .  S
C86          C90   1.525       .  S
C86          C88   1.522       .  S
C86          H92   1.113       .  S
C87          H93   1.087       .  S
C87          C88   1.356       .  D
C88         C337   1.424       .  S
C89          H94   1.086       .  S
C89          C90   1.370       .  D
C90         C322   1.440       .  S
C95         C312   1.476       .  S
C95          C97   1.533       .  S
C95          C99   1.532       .  S
C95          C98   1.532       .  S
C96         C330   1.476       .  S
C96         C100   1.532       .  S
C96         C102   1.533       .  S
C96         C101   1.532       .  S
C97         C105   1.383       .  A
C97         C100   1.408       .  A
C98         C109   1.374       .  A
C98         C101   1.396       .  A
C99         C113   1.382       .  A
C99         C102   1.406       .  A
C100        C103   1.382       .  A
C101        C107   1.374       .  A
C102        C110   1.383       .  A
C103        N104   1.349       .  A
C103        H116   1.083       .  S
N104        C105   1.349       .  A
N104        C317   1.401       .  S
C105        H106   1.083       .  S
C107        N108   1.356       .  A
C107        H117   1.082       .  S
N108        C109   1.356       .  A
N108        C349   1.400       .  S
C109        H115   1.082       .  S
C110        N111   1.349       .  A
C110        H112   1.083       .  S
N111        C113   1.349       .  A
N111        C314   1.402       .  S
C113        H114   1.083       .  S
C118        C119   1.538       .  S
C118        C124   1.542       .  S
C118        C122   1.551       .  S
C118        C307   1.481       .  S
C119        H126   1.087       .  S
C119        C120   1.360       .  D
C120        C121   1.524       .  S
C120        C308   1.431       .  S
C121        C125   1.525       .  S
C121        C123   1.527       .  S
C121        H127   1.113       .  S
C122        H128   1.086       .  S
C122        C123   1.374       .  D
C123        C310   1.451       .  S
C124        H129   1.086       .  S
C124        C125   1.365       .  D
C125        C316   1.439       .  S
C130        C131   1.538       .  S
C130        C136   1.543       .  S
C130        C134   1.552       .  S
C130        C301   1.482       .  S
C131        H138   1.087       .  S
C131        C132   1.360       .  D
C132        C133   1.524       .  S
C132        C302   1.430       .  S
C133        C137   1.525       .  S
C133        C135   1.527       .  S
C133        H139   1.113       .  S
C134        H140   1.086       .  S
C134        C135   1.375       .  D
C135        C335   1.452       .  S
C136        H141   1.086       .  S
C136        C137   1.365       .  D
C137        C315   1.440       .  S
C142        C347   1.484       .  S
C142        C144   1.536       .  S
C142        C146   1.531       .  S
C142        C145   1.531       .  S
C143        C311   1.483       .  S
C143        C147   1.531       .  S
C143        C149   1.526       .  S
C143        C148   1.527       .  S
C144        C152   1.377       .  A
C144        C147   1.416       .  A
C145        C156   1.376       .  A
C145        C148   1.396       .  A
C146        C160   1.375       .  A
C146        C149   1.395       .  A
C147        C150   1.375       .  A
C148        C154   1.368       .  A
C149        C157   1.373       .  A
C150        N151   1.345       .  A
C150        H163   1.083       .  S
N151        C152   1.348       .  A
N151        C296   1.391       .  S
C152        H153   1.083       .  S
C154        N155   1.354       .  A
C154        H164   1.083       .  S
N155        C156   1.356       .  A
N155        C333   1.395       .  S
C156        H162   1.083       .  S
C157        N158   1.354       .  A
C157        H159   1.083       .  S
N158        C160   1.354       .  A
N158        C295   1.397       .  S
C160        H161   1.083       .  S
C165        C166   1.544       .  S
C165        C171   1.546       .  S
C165        C169   1.535       .  S
C165        C291   1.471       .  S
C166        H173   1.086       .  S
C166        C167   1.366       .  D
C167        C168   1.525       .  S
C167        C352   1.440       .  S
C168        C172   1.525       .  S
C168        C170   1.522       .  S
C168        H174   1.113       .  S
C169        H175   1.087       .  S
C169        C170   1.358       .  D
C170        C297   1.425       .  S
C171        H176   1.086       .  S
C171        C172   1.370       .  D
C172        C292   1.441       .  S
C177        C178   1.539       .  S
C177        C183   1.538       .  S
C177        C181   1.530       .  S
C177        C285   1.469       .  S
C178        H185   1.086       .  S
C178        C179   1.367       .  D
C179        C180   1.538       .  S
C179        C313   1.447       .  S
C180        C184   1.538       .  S
C180        C182   1.532       .  S
C180        H186   1.112       .  S
C181        H187   1.087       .  S
C181        C182   1.357       .  D
C182        C294   1.433       .  S
C183        H188   1.086       .  S
C183        C184   1.367       .  D
C184        C286   1.446       .  S
C189        C328   1.474       .  S
C189        C191   1.535       .  S
C189        C193   1.532       .  S
C189        C192   1.532       .  S
C190        C293   1.473       .  S
C190        C194   1.532       .  S
C190        C196   1.526       .  S
C190        C195   1.523       .  S
C191        C199   1.378       .  A
C191        C194   1.412       .  A
C192        C203   1.378       .  A
C192        C195   1.394       .  A
C193        C207   1.377       .  A
C193        C196   1.392       .  A
C194        C197   1.377       .  A
C195        C201   1.367   1_554  A
C196        C204   1.373       .  A
C197        N198   1.347       .  A
C197        H210   1.083       .  S
N198        C199   1.349       .  A
N198        C309   1.395       .  S
C199        H200   1.083       .  S
C201        N202   1.353       .  A
C201        H211   1.083       .  S
N202        C203   1.357   1_556  A
N202        C280   1.395       .  S
C203        H209   1.083   1_554  S
C204        N205   1.354       .  A
C204        H206   1.083       .  S
N205        C207   1.356       .  A
N205        C361   1.399       .  S
C207        H208   1.083       .  S
C212        C287   1.474       .  S
C212        C214   1.535       .  S
C212        C216   1.531       .  S
C212        C215   1.532       .  S
C213        C323   1.472       .  S
C213        C217   1.532       .  S
C213        C219   1.526       .  S
C213        C218   1.523       .  S
C214        C222   1.378       .  A
C214        C217   1.413       .  A
C215        C226   1.378       .  A
C215        C218   1.394       .  A
C216        C230   1.376       .  A
C216        C219   1.391       .  A
C217        C220   1.377       .  A
C218        C224   1.367       .  A
C219        C227   1.374       .  A
C220        N221   1.347       .  A
C220        H233   1.083       .  S
N221        C222   1.349       .  A
N221        C303   1.395       .  S
C222        H223   1.083       .  S
C224        N225   1.353       .  A
C224        H234   1.083       .  S
N225        C226   1.356       .  A
N225        C281   1.395       .  S
C226        H232   1.083       .  S
C227        N228   1.355       .  A
C227        H229   1.083       .  S
N228        C230   1.356       .  A
N228        C344   1.399       .  S
C230        H231   1.082       .  S
N235        N236   1.325       .  A
N235        N241   1.320       .  A
N235       Mn264   2.238   1_455  S
N236        C243   1.355   1_556  A
N237        N239   1.315       .  A
N237        N238   1.324       .  A
N237       Mn253   2.219   1_545  S
N238        C244   1.355       .  A
N239        N240   1.318       .  A
N239       Mn264   2.179   1_455  S
N240        C244   1.347       .  A
N241        N242   1.323       .  A
N241       Mn253   2.214   1_545  S
N242        C243   1.352   1_556  A
C243        C356   1.451       .  S
C244        C321   1.438       .  S
N245        N251   1.319       .  A
N245        N246   1.325       .  A
N245       Mn275   2.235   1_455  S
N246        C254   1.355       .  A
N247        N248   1.324       .  A
N247        N249   1.315       .  A
N247       Mn253   2.220       .  S
N248        C255   1.355       .  A
N249        N250   1.318       .  A
N249       Mn275   2.182   1_455  S
N250        C255   1.347       .  A
N251        N252   1.322       .  A
N251       Mn253   2.213       .  S
N252        C254   1.352       .  A
Mn253      Cl277   2.564   1_455  S
C254        C343   1.449       .  S
C255        C288   1.440   1_556  S
N256        N257   1.327       .  A
N256        N262   1.319       .  A
N256       Mn264   2.244       .  S
N257        C265   1.358       .  A
N258        N260   1.314       .  A
N258        N259   1.324       .  A
N258       Mn276   2.217   1_545  S
N259        C266   1.356   1_556  A
N260        N261   1.317       .  A
N260       Mn264   2.179       .  S
N261        C266   1.347   1_556  A
N262        N263   1.321       .  A
N262       Mn276   2.203   1_545  S
N263        C265   1.350       .  A
Mn264      Cl277   2.539   1_545  S
C265        C298   1.451       .  S
C266        C327   1.438       .  S
N267        N268   1.326       .  A
N267        N273   1.319       .  A
N267       Mn275   2.242       .  S
N268        C278   1.358   1_556  A
N269        N270   1.324       .  A
N269        N271   1.314       .  A
N269       Mn276   2.216       .  S
N270        C279   1.356       .  A
N271        N272   1.317       .  A
N271       Mn275   2.180       .  S
N272        C279   1.347       .  A
N273        N274   1.320       .  A
N273       Mn276   2.202       .  S
N274        C278   1.349   1_556  A
Mn275      Cl277   2.540       .  S
Mn276      Cl277   2.566       .  S
C278        C304   1.449       .  S
C279        C282   1.437       .  S
C280        C281   1.200       .  T
C282        C283   1.206       .  T
C283        C284   1.413       .  S
C284        C285   1.207       .  T
C286        C287   1.208       .  T
C288        C289   1.208       .  T
C289        C290   1.416       .  S
C290        C291   1.208       .  T
C292        C293   1.207       .  T
C294        C295   1.201       .  T
C296        C297   1.196       .  T
C298        C299   1.215       .  T
C299        C300   1.426       .  S
C300        C301   1.214       .  T
C302        C303   1.199       .  T
C304        C305   1.214       .  T
C305        C306   1.425       .  S
C306        C307   1.214       .  T
C308        C309   1.200       .  T
C310        C311   1.213       .  T
C312        C313   1.209       .  T
C314        C315   1.205       .  T
C316        C317   1.205       .  T
C318        C319   1.207       .  T
C319        C320   1.414       .  S
C320        C321   1.207       .  T
C322        C323   1.206       .  T
C324        C325   1.207       .  T
C325        C326   1.415       .  S
C326        C327   1.207       .  T
C328        C329   1.209       .  T
C330        C331   1.210       .  T
C332        C333   1.200       .  T
C334        C335   1.213       .  T
C336        C337   1.195       .  T
C338        C339   1.202       .  T
C340        C341   1.214       .  T
C341        C342   1.424       .  S
C342        C343   1.213       .  T
C344        C345   1.204       .  T
C346        C347   1.214       .  T
C348        C349   1.204       .  T
C350        C351   1.206       .  T
C352        C353   1.206       .  T
C354        C355   1.211       .  T
C356        C357   1.215       .  T
C357        C358   1.427       .  S
C358        C359   1.215       .  T
C360        C361   1.204       .  T
C362        C363   1.214       .  T
C364        C365   1.211       .  T
