geometry optimzed in LAMMPS
_audit_creation_date              2020-12-01 
_audit_creation_method            'lammps2cif' 
_symmetry_space_group_name_H-M    'P1' 
_symmetry_Int_Tables_number       1 
_symmetry_cell_setting            triclinic 
loop_ 
_symmetry_equiv_pos_as_xyz 
  x,y,z 
_cell_length_a                    29.87856669 
_cell_length_b                    29.83984548023361 
_cell_length_c                    32.08323901157165 
_cell_angle_alpha                 89.89819336422396 
_cell_angle_beta                  90.04578824770972 
_cell_angle_gamma                 120.03708790980222 
loop_ 
_atom_site_label 
_atom_site_type_symbol 
_atom_site_fract_x 
_atom_site_fract_y 
_atom_site_fract_z 
_atom_site_charge 
O1          O  0.05142236  0.52624653  0.05940557    -0.69900
O2          O  0.05002354  0.52418028  0.94098310    -0.70100
O3          O  0.05058352  0.58888013  0.99944635    -0.69900
O4          O  0.05081951  0.46160846  0.00086292    -0.69900
O5          O  0.96671979  0.41941945  0.00151032    -0.69900
O6          O  0.96648730  0.54653056  0.00009776    -0.69900
O7          O  0.96592358  0.48191984  0.94165383    -0.69900
O8          O  0.96732480  0.48398258  0.06001350    -0.70000
V9          V  0.04909254  0.52442635  0.00019647     1.35200
V10         V  0.96826394  0.48380450  0.00081710     1.35200
C11         C  0.00958696  0.50539139  0.07969791     0.79400
C12         C  0.00772670  0.50259933  0.92134149     0.79400
C13         C  0.00845050  0.58915664  0.99952520     0.79300
C14         C  0.00876998  0.41902874  0.00129516     0.79300
O15         O  0.96276845  0.48229916  0.44126022    -0.69900
O16         O  0.96220335  0.48090595  0.55967440    -0.70100
O17         O  0.96196392  0.54500260  0.50092392    -0.69900
O18         O  0.96299957  0.41825926  0.50006857    -0.69900
O19         O  0.04710208  0.46089083  0.50031959    -0.69900
O20         O  0.04606546  0.58767334  0.50118796    -0.69900
O21         O  0.04630513  0.52355568  0.55992365    -0.69900
O22         O  0.04686722  0.52496034  0.44153217    -0.70000
V23         V  0.96411909  0.48245675  0.50047927     1.35200
V24         V  0.04495083  0.52345362  0.50072791     1.35200
C25         C  0.00492127  0.50377187  0.42140676     0.79400
C26         C  0.00416334  0.50194134  0.57977941     0.79400
C27         C  0.00383487  0.58772881  0.50127553     0.79300
C28         C  0.00521218  0.41817559  0.50007872     0.79300
C29         C  0.04498958  0.04543881  0.99975113     0.04200
C30         C  0.04433304  0.99787142  0.00023031     0.04200
C31         C  0.99678455  0.95096917  0.00170764     0.04200
C32         C  0.94992884  0.95166002  0.00276153     0.04200
C33         C  0.95059413  0.99925824  0.00222357     0.04200
C34         C  0.99815158  0.04612987  0.00068497     0.04200
C35         C  0.95197829  0.95294642  0.49928619     0.04200
C36         C  0.99925711  0.95308653  0.49897855     0.04200
C37         C  0.04642743  0.00038935  0.49828167     0.04200
C38         C  0.04627683  0.04754835  0.49826147     0.04200
C39         C  0.99903117  0.04743830  0.49889618     0.04200
C40         C  0.95184383  0.00014015  0.49946056     0.04200
O41         O  0.54050569  0.95620319  0.00073605    -0.69900
O42         O  0.41201611  0.95371013  0.00018937    -0.70100
O43         O  0.47737418  0.95680997  0.94130639    -0.69900
O44         O  0.47515271  0.95304424  0.05967942    -0.69900
O45         O  0.51602370  0.03721427  0.06128529    -0.69900
O46         O  0.51820775  0.04098152  0.94290275    -0.69900
O47         O  0.45290579  0.03787368  0.00181861    -0.69900
O48         O  0.58133030  0.04036707  0.00232758    -0.70000
V49         V  0.47705122  0.95657455  0.00051620     1.35200
V50         V  0.51631377  0.03746750  0.00206231     1.35200
C51         C  0.58261770  0.99871686  0.00162918     0.79400
C52         C  0.41078019  0.99539993  0.00079106     0.79400
C53         C  0.49814853  0.99951992  0.92212473     0.79300
C54         C  0.49529263  0.99449964  0.08046738     0.79300
O55         O  0.47674974  0.95451682  0.44305748    -0.69900
O56         O  0.47807006  0.95830034  0.56140440    -0.70100
O57         O  0.41357103  0.95599033  0.50185832    -0.69900
O58         O  0.54126975  0.95688413  0.50260689    -0.69900
O59         O  0.58290973  0.04105725  0.50075527    -0.69900
O60         O  0.45526683  0.04016499  0.50003178    -0.69900
O61         O  0.51974327  0.04248239  0.55959427    -0.69900
O62         O  0.51839574  0.03869664  0.44120750    -0.70000
V63         V  0.47822659  0.95805920  0.50219989     1.35200
V64         V  0.51826753  0.03896195  0.50043358     1.35200
C65         C  0.49726047  0.99596446  0.42215098     0.79400
C66         C  0.49920099  0.00101094  0.58047932     0.79400
C67         C  0.41286768  0.99794597  0.50071642     0.79300
C68         C  0.58365690  0.99913131  0.50188021     0.79300
O69         O  0.51869929  0.47714723  0.05983132    -0.69900
O70         O  0.52124363  0.47657961  0.94141565    -0.70100
O71         O  0.58314805  0.54096044  0.00112812    -0.69900
O72         O  0.45676159  0.41272609  0.00015126    -0.69900
O73         O  0.41397963  0.45402953  0.99861124    -0.69900
O74         O  0.54030919  0.58220695  0.99960215    -0.69900
O75         O  0.47842806  0.51784862  0.93991980    -0.69900
O76         O  0.47586634  0.51839803  0.05826721    -0.70000
V77         V  0.51913250  0.47764804  0.00059797     1.35200
V78         V  0.47797740  0.51730837  0.99912419     1.35200
C79         C  0.49701173  0.49804424  0.07903021     0.79400
C80         C  0.50014504  0.49701948  0.92068226     0.79400
C81         C  0.58304866  0.58322505  0.00068006     0.79300
C82         C  0.41403258  0.41174975  0.99913074     0.79300
O83         O  0.47735010  0.52353216  0.44124811    -0.69900
O84         O  0.47796625  0.52107463  0.55964382    -0.70100
O85         O  0.54164776  0.58563321  0.50069919    -0.69900
O86         O  0.41370586  0.45898965  0.50011864    -0.69900
O87         O  0.45503626  0.41622932  0.49879069    -0.69900
O88         O  0.58294039  0.54283623  0.49940217    -0.69900
O89         O  0.51925736  0.47827921  0.55832797    -0.69900
O90         O  0.51867455  0.48076716  0.43994240    -0.70000
V91         V  0.47847448  0.52148215  0.50041606     1.35200
V92         V  0.51817656  0.48036439  0.49915387     1.35200
C93         C  0.49795844  0.50260910  0.42061472     0.79400
C94         C  0.49860899  0.49915764  0.57897281     0.79400
C95         C  0.58388761  0.58560696  0.49997769     0.79300
C96         C  0.41279005  0.41623467  0.49934985     0.79300
C97         C  0.49872700  0.49607800  0.70612653     0.19000
C98         C  0.45527037  0.48876474  0.72844786    -0.10200
C99         C  0.45574948  0.48852788  0.77204923    -0.11000
C100        C  0.49968145  0.49559895  0.79352191     0.20500
C101        C  0.54305646  0.50270591  0.77120000    -0.13100
C102        C  0.54257824  0.50294231  0.72759976    -0.11300
C103        C  0.50034932  0.49592208  0.83839164     0.01500
C104        C  0.50058178  0.49641128  0.87597257    -0.31300
C105        C  0.49849364  0.49692341  0.66125930     0.02900
C106        C  0.49852990  0.49792154  0.62368348    -0.33000
H107        H  0.42115407  0.48341955  0.71217097     0.13900
H108        H  0.42199376  0.48300025  0.78899272     0.13700
H109        H  0.57723064  0.50821014  0.78747738     0.13600
H110        H  0.57639121  0.50862829  0.71065860     0.12600
C111        C  0.49728337  0.50367828  0.29348545     0.19000
C112        C  0.54240509  0.53652855  0.27124367    -0.10200
C113        C  0.54217195  0.53554059  0.22764708    -0.11000
C114        C  0.49681982  0.50169068  0.20612370     0.20500
C115        C  0.45164403  0.46904900  0.22836878    -0.13100
C116        C  0.45187753  0.47003767  0.27195184    -0.11300
C117        C  0.49669514  0.50021107  0.16128331     0.01500
C118        C  0.49667792  0.49897313  0.12372522    -0.31300
C119        C  0.49766949  0.50399039  0.33834394     0.02900
C120        C  0.49782340  0.50358830  0.37591771    -0.33000
H121        H  0.57773538  0.56268287  0.28757974     0.13900
H122        H  0.57731693  0.56096891  0.21075578     0.13700
H123        H  0.41636107  0.44274845  0.21204491     0.13600
H124        H  0.41677957  0.44446323  0.28883818     0.12600
C125        C  0.50016558  0.00260574  0.70761433     0.19000
C126        C  0.46686505  0.95714342  0.72935168    -0.10200
C127        C  0.46663773  0.95685729  0.77294095    -0.11000
C128        C  0.49971414  0.00202850  0.79499674     0.20500
C129        C  0.53305879  0.04749647  0.77326991    -0.13100
C130        C  0.53328761  0.04778487  0.72966094    -0.11300
C131        C  0.49941945  0.00163920  0.83985717     0.01500
C132        C  0.49893522  0.00087652  0.87742946    -0.31300
C133        C  0.50025377  0.00280142  0.66275112     0.02900
C134        C  0.49991198  0.00232351  0.62517560    -0.33000
H135        H  0.44111070  0.92198973  0.71262124     0.13900
H136        H  0.44071454  0.92148230  0.78942297     0.13700
H137        H  0.55881162  0.08263903  0.79001419     0.13600
H138        H  0.55920840  0.08314780  0.71316721     0.12600
C139        C  0.49497361  0.99267377  0.29501881     0.19000
C140        C  0.46428459  0.00804792  0.27312898    -0.10200
C141        C  0.46397991  0.00775731  0.22953142    -0.11000
C142        C  0.49435473  0.99208631  0.20762494     0.20500
C143        C  0.52491536  0.97654375  0.22951301    -0.13100
C144        C  0.52521965  0.97683402  0.27311827    -0.11300
C145        C  0.49445967  0.99238066  0.16275372     0.01500
C146        C  0.49471567  0.99312917  0.12517451    -0.31300
C147        C  0.49570098  0.99351001  0.33988140     0.02900
C148        C  0.49644355  0.99453241  0.37745215    -0.33000
H149        H  0.44075840  0.02038099  0.28974164     0.13900
H150        H  0.44022659  0.01987599  0.21292679     0.13700
H151        H  0.54857244  0.96437747  0.21289503     0.13600
H152        H  0.54910327  0.96488195  0.28972735     0.12600
C153        C  0.27614857  0.27959364  0.49859420     0.19000
C154        C  0.23044540  0.27750165  0.51180572    -0.10200
C155        C  0.18382357  0.23040023  0.51153333    -0.11000
C156        C  0.18275525  0.18524213  0.49804881     0.20500
C157        C  0.22842875  0.18731742  0.48483102    -0.13100
C158        C  0.27504159  0.23441099  0.48510353    -0.11300
C159        C  0.13488132  0.13680224  0.49788191     0.00900
C160        C  0.09472889  0.09622247  0.49791780    -0.31300
C161        C  0.32415211  0.32800792  0.49890437     0.02900
C162        C  0.36453681  0.36839738  0.49911961    -0.33000
H163        H  0.23087245  0.31220163  0.52230651     0.13900
H164        H  0.14869814  0.22916948  0.52184901     0.13700
H165        H  0.22798856  0.15259862  0.47435165     0.13600
H166        H  0.31015714  0.23559924  0.47483333     0.12600
C167        C  0.72119982  0.72162569  0.49841832     0.19000
C168        C  0.76589950  0.72377364  0.51438479    -0.10200
C169        C  0.81278068  0.77062065  0.51440634    -0.11000
C170        C  0.81516591  0.81547565  0.49838981     0.20500
C171        C  0.77055358  0.81328411  0.48219069    -0.13100
C172        C  0.72365213  0.76645037  0.48222339    -0.11300
C173        C  0.86325031  0.86375495  0.49881425     0.01500
C174        C  0.90350895  0.90425587  0.49918049    -0.31300
C175        C  0.67279428  0.67359124  0.49898364     0.02900
C176        C  0.63219514  0.63341186  0.49956980    -0.33000
H177        H  0.76444504  0.68935244  0.52697289     0.13900
H178        H  0.84703463  0.77193095  0.52707741     0.13700
H179        H  0.77200593  0.84774439  0.46969145     0.13600
H180        H  0.68933210  0.76522195  0.46978400     0.12600
C181        C  0.27664434  0.99880150  0.49829020     0.19000
C182        C  0.23118867  0.95547682  0.48417013    -0.10200
C183        C  0.18471228  0.95617135  0.48351582    -0.11000
C184        C  0.18342563  0.00011960  0.49710258     0.20500
C185        C  0.22891428  0.04354473  0.51101255    -0.13100
C186        C  0.27541653  0.04289799  0.51157621    -0.11300
C187        C  0.13541136  0.00046110  0.49717744     0.01500
C188        C  0.09507711  0.00052510  0.49760853    -0.31300
C189        C  0.32446807  0.99802085  0.49922585     0.02900
C190        C  0.36469325  0.99772044  0.50002479    -0.33000
H191        H  0.23166943  0.92120622  0.47374217     0.13900
H192        H  0.14984025  0.92249012  0.47249111     0.13700
H193        H  0.22838054  0.07775182  0.52155330     0.13600
H194        H  0.31032181  0.07665380  0.52248862     0.12600
C195        C  0.81475036  0.00016491  0.50231962     0.19000
C196        C  0.81396582  0.04589589  0.49404937    -0.10200
C197        C  0.76710833  0.04584497  0.49443142    -0.11000
C198        C  0.72079803  0.00004823  0.50304595     0.20500
C199        C  0.72163525  0.95437404  0.51151729    -0.13100
C200        C  0.76849954  0.95443423  0.51117177    -0.11300
C201        C  0.67244699  0.99980995  0.50282290     0.01500
C202        C  0.63191064  0.99950503  0.50239983    -0.31300
C203        C  0.86288847  0.00008500  0.50140387     0.02900
C204        C  0.90323139  0.00005552  0.50046851    -0.33000
H205        H  0.84948364  0.08145780  0.48712495     0.13900
H206        H  0.76695578  0.08139085  0.48784002     0.13700
H207        H  0.68609330  0.91873957  0.51822931     0.13600
H208        H  0.76865955  0.91886861  0.51765708     0.12600
C209        C  0.18268987  0.18196102  0.99711318     0.19000
C210        C  0.18597512  0.22644214  0.01471873    -0.10200
C211        C  0.23312722  0.27300474  0.01483308    -0.11000
C212        C  0.27719124  0.27525962  0.99738008     0.20500
C213        C  0.27383430  0.23081911  0.97959082    -0.13100
C214        C  0.22665467  0.18426689  0.97942446    -0.11300
C215        C  0.32578812  0.32309876  0.99787612     0.01500
C216        C  0.36625694  0.36341256  0.99847194    -0.31300
C217        C  0.13437097  0.13392161  0.99756577     0.02900
C218        C  0.09385081  0.09369988  0.99838835    -0.33000
H219        H  0.15219231  0.22506719  0.02846315     0.13900
H220        H  0.23527274  0.30714472  0.02862402     0.13700
H221        H  0.30764038  0.23214182  0.96595877     0.13600
H222        H  0.22447444  0.15012956  0.96560900     0.12600
C223        C  0.81240335  0.81494893  0.00477366     0.19000
C224        C  0.81194595  0.76847804  0.01240340    -0.10200
C225        C  0.76522877  0.72147263  0.01184855    -0.11000
C226        C  0.71879588  0.72075254  0.00366453     0.20500
C227        C  0.71924460  0.76726498  0.99621492    -0.13100
C228        C  0.76597119  0.81426729  0.99672277    -0.11300
C229        C  0.67082232  0.67230590  0.00258170     0.01500
C230        C  0.63072929  0.63164013  0.00159491    -0.31300
C231        C  0.86054894  0.86317613  0.00465040     0.02900
C232        C  0.90106785  0.90341150  0.00403226    -0.33000
H233        H  0.84765810  0.76858172  0.01856876     0.13900
H234        H  0.76532659  0.68573618  0.01763049     0.13700
H235        H  0.68357965  0.76715765  0.98982740     0.13600
H236        H  0.76594012  0.84996080  0.99059799     0.12600
C237        C  0.27395552  0.99507917  0.99865995     0.19000
C238        C  0.27418356  0.04190263  0.00319074    -0.10200
C239        C  0.22762008  0.04242361  0.00299849    -0.11000
C240        C  0.18059021  0.99613604  0.99821135     0.20500
C241        C  0.18034694  0.94933162  0.99351410    -0.13100
C242        C  0.22691772  0.94879908  0.99372076    -0.11300
C243        C  0.13265575  0.99664105  0.99855676     0.01500
C244        C  0.09256713  0.99718859  0.99919989    -0.31300
C245        C  0.32191312  0.99454746  0.99939419     0.02900
C246        C  0.36232481  0.99461170  0.00012671    -0.33000
H247        H  0.31029378  0.07792233  0.00704604     0.13900
H248        H  0.22826262  0.07880066  0.00680340     0.13700
H249        H  0.14421285  0.91330087  0.98990459     0.13600
H250        H  0.22624101  0.91236242  0.99020307     0.12600
C251        C  0.81429209  0.00093494  0.00356262     0.19000
C252        C  0.76932994  0.95816430  0.01905956    -0.10200
C253        C  0.72244772  0.95804160  0.01868301    -0.11000
C254        C  0.72029860  0.00074550  0.00289470     0.20500
C255        C  0.76533814  0.04366215  0.98759932    -0.13100
C256        C  0.81222712  0.04374648  0.98791336    -0.11300
C257        C  0.67189204  0.00038567  0.00231287     0.01500
C258        C  0.63116693  0.99969451  0.00192346    -0.31300
C259        C  0.86233931  0.00064355  0.00340805     0.02900
C260        C  0.90240158  0.00003138  0.00300575    -0.33000
H261        H  0.77051001  0.92494582  0.03136801     0.13900
H262        H  0.68791293  0.92467424  0.03063286     0.13700
H263        H  0.76416923  0.07691939  0.97534977     0.13600
H264        H  0.84675774  0.07703628  0.97585933     0.12600
C265        C  0.00398920  0.28091050  0.49965555     0.19000
C266        C  0.04553584  0.27743217  0.48310721    -0.10200
C267        C  0.04418601  0.22989599  0.48289536    -0.11000
C268        C  0.00129408  0.18569001  0.49923554     0.20500
C269        C  0.95980591  0.18918277  0.51584438    -0.13100
C270        C  0.96114249  0.23669639  0.51603584    -0.11300
C271        C  0.99989776  0.13682811  0.49904785     0.01500
C272        C  0.99909888  0.09605397  0.49896474    -0.31300
C273        C  0.00516139  0.32970641  0.49973645     0.02900
C274        C  0.00550724  0.37027134  0.49985748    -0.33000
H275        H  0.07885607  0.31137714  0.47036906     0.13900
H276        H  0.07648556  0.22759279  0.47000494     0.13700
H277        H  0.92652331  0.15525255  0.52863917     0.13600
H278        H  0.92882171  0.23896057  0.52891504     0.12600
C279        C  0.00046060  0.81657991  0.50153474     0.19000
C280        C  0.95516881  0.76975786  0.49323700    -0.10200
C281        C  0.95590377  0.72326984  0.49368857    -0.11000
C282        C  0.00197320  0.72344832  0.50232354     0.20500
C283        C  0.04722941  0.77026961  0.51078572    -0.13100
C284        C  0.04644570  0.81673880  0.51047237    -0.11300
C285        C  0.00285084  0.67567540  0.50218913     0.01500
C286        C  0.00340700  0.63556570  0.50180846    -0.31300
C287        C  0.99981754  0.86442547  0.50060722     0.02900
C288        C  0.99941582  0.90459337  0.49973397    -0.33000
H289        H  0.91943419  0.76923090  0.48624106     0.13900
H290        H  0.92068814  0.68728655  0.48712125     0.13700
H291        H  0.08305085  0.77084715  0.51753791     0.13600
H292        H  0.08160848  0.85270629  0.51713302     0.12600
C293        C  0.00545242  0.50025406  0.79424840     0.19000
C294        C  0.97691972  0.51852411  0.77274397    -0.10200
C295        C  0.97632394  0.51851633  0.72915774    -0.11000
C296        C  0.00425557  0.50022975  0.70689041     0.20500
C297        C  0.03265165  0.48178767  0.72839047    -0.13100
C298        C  0.03324804  0.48179587  0.77198804    -0.11300
C299        C  0.00400278  0.50066591  0.66204201     0.01500
C300        C  0.00398075  0.50122975  0.62447416    -0.31300
C301        C  0.00642116  0.50077592  0.83909152     0.02900
C302        C  0.00713461  0.50156710  0.87665421    -0.33000
H303        H  0.95528835  0.53287695  0.78965203     0.13900
H304        H  0.95423853  0.53285918  0.71284667     0.13700
H305        H  0.05438467  0.46755740  0.71147458     0.13600
H306        H  0.05543552  0.46757612  0.78830608     0.12600
C307        C  0.00656896  0.50430293  0.29424379     0.19000
C308        C  0.04059148  0.49292227  0.27292876    -0.10200
C309        C  0.04163397  0.49341409  0.22933113    -0.11000
C310        C  0.00866208  0.50529546  0.20686144     0.20500
C311        C  0.97458070  0.51658598  0.22817859    -0.13100
C312        C  0.97353767  0.51609433  0.27177130    -0.11300
C313        C  0.00964822  0.50575220  0.16199644     0.01500
C314        C  0.00997217  0.50584988  0.12441429    -0.31300
C315        C  0.00568640  0.50405741  0.33910907     0.02900
C316        C  0.00518862  0.50395528  0.37668932    -0.33000
H317        H  0.06629231  0.48373819  0.28999003     0.13900
H318        H  0.06810001  0.48456749  0.21317208     0.13700
H319        H  0.94887688  0.52576883  0.21112059     0.13600
H320        H  0.94706932  0.52493946  0.28792685     0.12600
C321        C  0.00570515  0.28085152  0.00035276     0.19000
C322        C  0.04920721  0.27792637  0.98819306    -0.10200
C323        C  0.04729810  0.23012796  0.98780297    -0.11000
C324        C  0.00187935  0.18509129  0.99956463     0.20500
C325        C  0.95832518  0.18797203  0.01157983    -0.13100
C326        C  0.96023392  0.23576174  0.01196431    -0.11300
C327        C  0.00011447  0.13605251  0.99965936     0.01500
C328        C  0.99896586  0.09511054  0.00004507    -0.31300
C329        C  0.00764937  0.33001851  0.00091818     0.02900
C330        C  0.00863553  0.37089913  0.00128428    -0.33000
H331        H  0.08453865  0.31253426  0.97910928     0.13900
H332        H  0.08118185  0.22829091  0.97844537     0.13700
H333        H  0.92303344  0.15336756  0.02075165     0.13600
H334        H  0.92635905  0.23757704  0.02137433     0.12600
C335        C  0.00416046  0.72367678  0.99957839     0.19000
C336        C  0.96831659  0.72745700  0.02532264    -0.10200
C337        C  0.96581543  0.77302828  0.02589437    -0.11000
C338        C  0.99913366  0.81499395  0.00069493     0.20500
C339        C  0.03485527  0.81116649  0.97485163    -0.13100
C340        C  0.03739871  0.76562313  0.97431152    -0.11300
C341        C  0.99696350  0.86206769  0.00146809     0.01500
C342        C  0.99621842  0.90208338  0.00179805    -0.31300
C343        C  0.00672827  0.67677013  0.99912036     0.02900
C344        C  0.00809966  0.63706385  0.99911300    -0.33000
H345        H  0.94239738  0.69524267  0.04495544     0.13900
H346        H  0.93803798  0.77557261  0.04597793     0.13700
H347        H  0.06069934  0.84335015  0.95516359     0.13600
H348        H  0.06521866  0.76312196  0.95425399     0.12600
loop_ 
_geom_bond_atom_site_label_1 
_geom_bond_atom_site_label_2 
_geom_bond_distance 
_geom_bond_site_symmetry_2 
_ccdc_geom_bond_type 
O1            V9   1.901       .  S
O1           C11   1.263       .  A
O2            V9   1.900   1_556  S
O2           C12   1.263       .  A
O3            V9   1.901   1_556  S
O3           C13   1.263       .  A
O4            V9   1.901       .  S
O4           C14   1.263       .  A
O5           V10   1.899       .  S
O5           C14   1.262   1_655  A
O6           V10   1.899       .  S
O6           C13   1.262   1_654  A
O7           V10   1.899   1_556  S
O7           C12   1.262   1_655  A
O8           V10   1.899       .  S
O8           C11   1.263   1_655  A
V9           V10   2.091   1_455  T
C11         C314   1.435       .  S
C12         C302   1.434       .  S
C13         C344   1.435       .  S
C14         C330   1.434       .  S
O15          V23   1.900       .  S
O15          C25   1.263   1_655  A
O16          V23   1.900       .  S
O16          C26   1.263   1_655  A
O17          V23   1.899       .  S
O17          C27   1.263   1_655  A
O18          V23   1.899       .  S
O18          C28   1.263   1_655  A
O19          V24   1.900       .  S
O19          C28   1.263       .  A
O20          V24   1.900       .  S
O20          C27   1.263       .  A
O21          V24   1.900       .  S
O21          C26   1.263       .  A
O22          V24   1.900       .  S
O22          C25   1.263       .  A
V23          V24   2.091   1_655  T
C25         C316   1.435       .  S
C26         C300   1.434       .  S
C27         C286   1.434       .  S
C28         C274   1.434       .  S
C29         C218   1.450       .  S
C29          C30   1.410   1_546  A
C29          C34   1.410   1_456  A
C30         C244   1.452   1_554  S
C30          C31   1.410   1_455  A
C31         C342   1.450       .  S
C31          C32   1.411       .  A
C32         C232   1.450       .  S
C32          C33   1.411       .  A
C33         C260   1.452   1_565  S
C33          C34   1.410   1_565  A
C34         C328   1.450       .  S
C35         C174   1.450       .  S
C35          C36   1.411       .  A
C35          C40   1.410   1_565  A
C36         C288   1.450       .  S
C36          C37   1.410   1_665  A
C37         C188   1.452       .  S
C37          C38   1.409       .  A
C38         C160   1.449       .  S
C38          C39   1.410   1_455  A
C39         C272   1.450       .  S
C39          C40   1.410       .  A
C40         C204   1.452       .  S
O41          V49   1.902       .  S
O41          C51   1.263       .  A
O42          V49   1.902       .  S
O42          C52   1.263       .  A
O43          V49   1.900   1_556  S
O43          C53   1.263       .  A
O44          V49   1.900       .  S
O44          C54   1.263       .  A
O45          V50   1.900       .  S
O45          C54   1.263   1_545  A
O46          V50   1.900   1_556  S
O46          C53   1.263   1_545  A
O47          V50   1.901       .  S
O47          C52   1.263   1_545  A
O48          V50   1.901       .  S
O48          C51   1.263   1_545  A
V49          V50   2.091   1_565  T
C51         C258   1.436       .  S
C52         C246   1.436       .  S
C53         C132   1.434   1_565  S
C54         C146   1.435       .  S
O55          V63   1.900       .  S
O55          C65   1.263       .  A
O56          V63   1.900       .  S
O56          C66   1.263   1_565  A
O57          V63   1.902       .  S
O57          C67   1.263       .  A
O58          V63   1.901       .  S
O58          C68   1.263       .  A
O59          V64   1.901       .  S
O59          C68   1.263   1_545  A
O60          V64   1.901       .  S
O60          C67   1.263   1_545  A
O61          V64   1.900       .  S
O61          C66   1.263       .  A
O62          V64   1.900       .  S
O62          C65   1.263   1_545  A
V63          V64   2.091   1_565  T
C65         C148   1.435       .  S
C66         C134   1.434       .  S
C67         C190   1.436       .  S
C68         C202   1.436       .  S
O69          V77   1.900       .  S
O69          C79   1.263       .  A
O70          V77   1.901   1_556  S
O70          C80   1.263       .  A
O71          V77   1.900       .  S
O71          C81   1.263       .  A
O72          V77   1.900       .  S
O72          C82   1.263   1_554  A
O73          V78   1.899       .  S
O73          C82   1.262       .  A
O74          V78   1.900       .  S
O74          C81   1.263   1_556  A
O75          V78   1.900       .  S
O75          C80   1.263       .  A
O76          V78   1.899   1_554  S
O76          C79   1.262       .  A
V77          V78   2.091   1_554  T
C79         C118   1.434       .  S
C80         C104   1.435       .  S
C81         C230   1.434       .  S
C82         C216   1.434       .  S
O83          V91   1.900       .  S
O83          C93   1.263       .  A
O84          V91   1.900       .  S
O84          C94   1.263       .  A
O85          V91   1.900       .  S
O85          C95   1.263       .  A
O86          V91   1.900       .  S
O86          C96   1.263       .  A
O87          V92   1.899       .  S
O87          C96   1.262       .  A
O88          V92   1.900       .  S
O88          C95   1.263       .  A
O89          V92   1.900       .  S
O89          C94   1.263       .  A
O90          V92   1.900       .  S
O90          C93   1.263       .  A
V91          V92   2.091       .  T
C93         C120   1.434       .  S
C94         C106   1.435       .  S
C95         C176   1.434       .  S
C96         C162   1.434       .  S
C97         C105   1.440       .  S
C97          C98   1.401       .  A
C97         C102   1.401       .  A
C98          C99   1.399       .  A
C98         H107   1.083       .  S
C99         C100   1.401       .  A
C99         H108   1.083       .  S
C100        C103   1.440       .  S
C100        C101   1.401       .  A
C101        C102   1.399       .  A
C101        H109   1.083       .  S
C102        H110   1.083       .  S
C103        C104   1.206       .  T
C105        C106   1.206       .  T
C111        C119   1.439       .  S
C111        C112   1.401       .  A
C111        C116   1.401       .  A
C112        C113   1.399       .  A
C112        H121   1.083       .  S
C113        C114   1.401       .  A
C113        H122   1.083       .  S
C114        C117   1.439       .  S
C114        C115   1.401       .  A
C115        C116   1.399       .  A
C115        H123   1.083       .  S
C116        H124   1.083       .  S
C117        C118   1.206       .  T
C119        C120   1.206       .  T
C125        C133   1.439       .  S
C125        C126   1.401   1_545  A
C125        C130   1.401       .  A
C126        C127   1.398       .  A
C126        H135   1.083       .  S
C127        C128   1.401   1_565  A
C127        H136   1.083       .  S
C128        C131   1.439       .  S
C128        C129   1.401       .  A
C129        C130   1.399       .  A
C129        H137   1.083       .  S
C130        H138   1.083       .  S
C131        C132   1.206       .  T
C133        C134   1.206       .  T
C139        C147   1.440       .  S
C139        C140   1.401   1_565  A
C139        C144   1.401       .  A
C140        C141   1.399       .  A
C140        H149   1.083       .  S
C141        C142   1.401   1_545  A
C141        H150   1.083       .  S
C142        C145   1.440       .  S
C142        C143   1.401       .  A
C143        C144   1.399       .  A
C143        H151   1.083       .  S
C144        H152   1.083       .  S
C145        C146   1.206       .  T
C147        C148   1.206       .  T
C153        C161   1.439       .  S
C153        C154   1.401       .  A
C153        C158   1.401       .  A
C154        C155   1.399       .  A
C154        H163   1.083       .  S
C155        C156   1.401       .  A
C155        H164   1.084       .  S
C156        C159   1.437       .  S
C156        C157   1.401       .  A
C157        C158   1.398       .  A
C157        H165   1.084       .  S
C158        H166   1.083       .  S
C159        C160   1.205       .  T
C161        C162   1.205       .  T
C167        C175   1.439       .  S
C167        C168   1.401       .  A
C167        C172   1.401       .  A
C168        C169   1.399       .  A
C168        H177   1.083       .  S
C169        C170   1.401       .  A
C169        H178   1.083       .  S
C170        C173   1.438       .  S
C170        C171   1.401       .  A
C171        C172   1.399       .  A
C171        H179   1.083       .  S
C172        H180   1.083       .  S
C173        C174   1.205       .  T
C175        C176   1.206       .  T
C181        C189   1.441       .  S
C181        C182   1.402       .  A
C181        C186   1.402   1_565  A
C182        C183   1.399       .  A
C182        H191   1.083       .  S
C183        C184   1.401   1_565  A
C183        H192   1.083       .  S
C184        C187   1.440       .  S
C184        C185   1.401       .  A
C185        C186   1.399       .  A
C185        H193   1.084       .  S
C186        H194   1.083       .  S
C187        C188   1.206       .  T
C189        C190   1.207       .  T
C195        C203   1.440       .  S
C195        C196   1.401       .  A
C195        C200   1.401   1_545  A
C196        C197   1.399       .  A
C196        H205   1.083       .  S
C197        C198   1.402       .  A
C197        H206   1.083       .  S
C198        C201   1.441   1_545  S
C198        C199   1.402   1_545  A
C199        C200   1.399       .  A
C199        H207   1.083       .  S
C200        H208   1.083       .  S
C201        C202   1.207       .  T
C203        C204   1.206       .  T
C209        C217   1.438       .  S
C209        C210   1.401   1_556  A
C209        C214   1.401       .  A
C210        C211   1.398       .  A
C210        H219   1.084       .  S
C211        C212   1.401   1_554  A
C211        H220   1.083       .  S
C212        C215   1.439       .  S
C212        C213   1.401       .  A
C213        C214   1.399       .  A
C213        H221   1.083       .  S
C214        H222   1.083       .  S
C215        C216   1.206       .  T
C217        C218   1.205       .  T
C223        C231   1.438       .  S
C223        C224   1.401       .  A
C223        C228   1.401   1_554  A
C224        C225   1.399       .  A
C224        H233   1.084       .  S
C225        C226   1.401       .  A
C225        H234   1.084       .  S
C226        C229   1.439       .  S
C226        C227   1.401   1_554  A
C227        C228   1.399       .  A
C227        H235   1.083       .  S
C228        H236   1.083       .  S
C229        C230   1.206       .  T
C231        C232   1.205       .  T
C237        C245   1.441       .  S
C237        C238   1.402   1_566  A
C237        C242   1.402       .  A
C238        C239   1.399       .  A
C238        H247   1.083       .  S
C239        C240   1.401   1_544  A
C239        H248   1.083       .  S
C240        C243   1.440       .  S
C240        C241   1.401       .  A
C241        C242   1.400       .  A
C241        H249   1.083       .  S
C242        H250   1.083       .  S
C243        C244   1.206       .  T
C245        C246   1.207   1_556  T
C251        C259   1.440       .  S
C251        C252   1.401   1_545  A
C251        C256   1.402   1_554  A
C252        C253   1.399       .  A
C252        H261   1.083       .  S
C253        C254   1.401   1_565  A
C253        H262   1.083       .  S
C254        C257   1.441       .  S
C254        C255   1.402   1_554  A
C255        C256   1.400       .  A
C255        H263   1.083       .  S
C256        H264   1.084       .  S
C257        C258   1.207   1_545  T
C259        C260   1.206       .  T
C265        C273   1.439       .  S
C265        C266   1.401       .  A
C265        C270   1.401   1_455  A
C266        C267   1.399       .  A
C266        H275   1.083       .  S
C267        C268   1.401       .  A
C267        H276   1.084       .  S
C268        C271   1.438   1_455  S
C268        C269   1.401   1_455  A
C269        C270   1.398       .  A
C269        H277   1.083       .  S
C270        H278   1.083       .  S
C271        C272   1.205       .  T
C273        C274   1.205       .  T
C279        C287   1.438   1_455  S
C279        C280   1.401   1_455  A
C279        C284   1.401       .  A
C280        C281   1.398       .  A
C280        H289   1.083       .  S
C281        C282   1.401   1_655  A
C281        H290   1.083       .  S
C282        C285   1.439       .  S
C282        C283   1.401       .  A
C283        C284   1.399       .  A
C283        H291   1.083       .  S
C284        H292   1.083       .  S
C285        C286   1.205       .  T
C287        C288   1.205       .  T
C293        C301   1.439       .  S
C293        C294   1.401   1_455  A
C293        C298   1.401       .  A
C294        C295   1.398       .  A
C294        H303   1.083       .  S
C295        C296   1.401   1_655  A
C295        H304   1.083       .  S
C296        C299   1.439       .  S
C296        C297   1.401       .  A
C297        C298   1.399       .  A
C297        H305   1.083       .  S
C298        H306   1.083       .  S
C299        C300   1.205       .  T
C301        C302   1.205       .  T
C307        C315   1.440       .  S
C307        C308   1.401       .  A
C307        C312   1.401   1_455  A
C308        C309   1.399       .  A
C308        H317   1.083       .  S
C309        C310   1.401       .  A
C309        H318   1.083       .  S
C310        C313   1.440       .  S
C310        C311   1.401   1_455  A
C311        C312   1.399       .  A
C311        H319   1.083       .  S
C312        H320   1.083       .  S
C313        C314   1.206       .  T
C315        C316   1.206       .  T
C321        C329   1.439       .  S
C321        C322   1.401   1_554  A
C321        C326   1.401   1_455  A
C322        C323   1.399       .  A
C322        H331   1.083       .  S
C323        C324   1.401       .  A
C323        H332   1.084       .  S
C324        C327   1.438       .  S
C324        C325   1.401   1_456  A
C325        C326   1.398       .  A
C325        H333   1.084       .  S
C326        H334   1.083       .  S
C327        C328   1.205   1_456  T
C329        C330   1.205       .  T
C335        C343   1.440       .  S
C335        C336   1.402   1_456  A
C335        C340   1.401       .  A
C336        C337   1.399       .  A
C336        H345   1.083       .  S
C337        C338   1.401       .  A
C337        H346   1.083       .  S
C338        C341   1.438       .  S
C338        C339   1.401   1_654  A
C339        C340   1.399       .  A
C339        H347   1.083       .  S
C340        H348   1.083       .  S
C341        C342   1.205       .  T
C343        C344   1.206       .  T
