geometry optimzed in LAMMPS
_audit_creation_date              2020-12-01 
_audit_creation_method            'lammps2cif' 
_symmetry_space_group_name_H-M    'P1' 
_symmetry_Int_Tables_number       1 
_symmetry_cell_setting            triclinic 
loop_ 
_symmetry_equiv_pos_as_xyz 
  x,y,z 
_cell_length_a                    21.37052855 
_cell_length_b                    21.3699396717522 
_cell_length_c                    27.026467670088174 
_cell_angle_alpha                 89.99985365736595 
_cell_angle_beta                  90.00000216238747 
_cell_angle_gamma                 89.99687663388647 
loop_ 
_atom_site_label 
_atom_site_type_symbol 
_atom_site_fract_x 
_atom_site_fract_y 
_atom_site_fract_z 
_atom_site_charge 
C1          C  0.51426732  0.48567237  0.25012257     0.01500
C2          C  0.94461140  0.05530919  0.24998986     0.01500
C3          C  0.94509220  0.48614818  0.25009446     0.01500
C4          C  0.05720135  0.77087724  0.91141399     0.90400
C5          C  0.02977233  0.82813089  0.88509868    -0.49800
C6          C  0.04078239  0.82879846  0.83539712     0.13400
C7          C  0.07798242  0.77123946  0.81652987     0.24300
C8          C  0.02962209  0.71392013  0.88479770    -0.50500
C9          C  0.04066302  0.71361739  0.83509693     0.13500
C10         C  0.12655735  0.77082839  0.89816673    -0.50100
C11         C  0.13769712  0.77101411  0.84856534     0.14000
H12         H  0.00588651  0.86583749  0.90428326     0.18600
H13         H  0.08741657  0.77138931  0.77610079     0.04300
H14         H  0.00571567  0.67607793  0.90379475     0.18900
H15         H  0.16375231  0.77062171  0.92562002     0.18700
C16         C  0.40149971  0.77040893  0.91175741     0.90400
C17         C  0.42905565  0.71333261  0.88527583    -0.49800
C18         C  0.41812415  0.71291622  0.83555946     0.13400
C19         C  0.38090541  0.77052925  0.81684816     0.24300
C20         C  0.42904647  0.82755701  0.88536061    -0.50500
C21         C  0.41811017  0.82809729  0.83564362     0.13500
C22         C  0.33216049  0.77042593  0.89842147    -0.50100
C23         C  0.32112995  0.77050230  0.84879935     0.14000
H24         H  0.45290148  0.67552309  0.90436552     0.18600
H25         H  0.37154982  0.77058247  0.77640797     0.04300
H26         H  0.45286428  0.86533221  0.90451041     0.18900
H27         H  0.29490651  0.77042688  0.92582439     0.18700
In28       In  0.51598655  0.77019000  0.14040261     1.36900
C29         C  0.63635551  0.77005669  0.14444792     0.81500
O30         O  0.53533360  0.87326092  0.13910871    -0.56900
O31         O  0.47718970  0.83901643  0.19674322    -0.47800
C32         C  0.45526176  0.77028104  0.05575446     0.74200
O33         O  0.51374956  0.77030989  0.05897245    -0.42700
C34         C  0.50590557  0.65525419  0.17819896     0.78900
O35         O  0.60758431  0.77011921  0.10383371    -0.54500
O36         O  0.47848207  0.70169308  0.19750076    -0.44600
O37         O  0.60370592  0.77000917  0.18324145    -0.51000
C38         C  0.50578011  0.88518512  0.17809545     0.89100
O39         O  0.42598638  0.77022269  0.09641042    -0.52900
O40         O  0.53410947  0.66689421  0.13853682    -0.56200
In41       In  0.94318524  0.77066897  0.14024503     1.36900
C42         C  0.82282961  0.77065600  0.14434506     0.81500
O43         O  0.92398119  0.66755858  0.13900498    -0.56900
O44         O  0.98196800  0.70192272  0.19668233    -0.47800
C45         C  0.00364225  0.77049666  0.05547362     0.74200
O46         O  0.94517066  0.77007531  0.05881440    -0.42700
C47         C  0.95313559  0.88567012  0.17805153     0.78900
O48         O  0.85155736  0.77089403  0.10371160    -0.54500
O49         O  0.98080911  0.83929849  0.19723427    -0.44600
O50         O  0.85551787  0.77053387  0.18311653    -0.51000
C51         C  0.95343193  0.65570926  0.17805176     0.89100
O52         O  0.03305387  0.77094898  0.09606842    -0.52900
O53         O  0.92475188  0.87394805  0.13848350    -0.56200
C54         C  0.51375946  0.05481584  0.25001970     0.01500
In55       In  0.22967067  0.48402323  0.35974184     1.36900
C56         C  0.22981338  0.36365220  0.35564482     0.81500
O57         O  0.12663597  0.46448689  0.36099789    -0.56900
O58         O  0.16074733  0.52303104  0.30356529    -0.47800
C59         C  0.22969576  0.54470620  0.44440300     0.74200
O60         O  0.22980119  0.48621743  0.44117122    -0.42700
C61         C  0.34458766  0.49411360  0.32190737     0.78900
O62         O  0.22958466  0.39239366  0.39627268    -0.54500
O63         O  0.29809586  0.52132895  0.30250236    -0.44600
O64         O  0.23000745  0.39633309  0.31686806    -0.51000
C65         C  0.11464183  0.49424008  0.32211922     0.89100
O66         O  0.22955781  0.57400170  0.40375566    -0.52900
O67         O  0.33300065  0.46612774  0.36167607    -0.56200
In68       In  0.22918399  0.05680330  0.35979617     1.36900
C69         C  0.22920403  0.17716907  0.35568146     0.81500
O70         O  0.33233662  0.07575351  0.36113602    -0.56900
O71         O  0.29784026  0.01828393  0.30318414    -0.47800
C72         C  0.22950375  0.99632999  0.44456489     0.74200
O73         O  0.23000952  0.05480335  0.44122769    -0.42700
C74         C  0.11416719  0.04680394  0.32203925     0.78900
O75         O  0.22872760  0.14844334  0.39631448    -0.54500
O76         O  0.16048360  0.01890771  0.30297492    -0.44600
O77         O  0.22954124  0.14447445  0.31691369    -0.51000
C78         C  0.34411968  0.04656432  0.32195268     0.89100
O79         O  0.22888088  0.96692566  0.40396790    -0.52900
O80         O  0.12594425  0.07544049  0.36148283    -0.56200
C81         C  0.22919586  0.94278940  0.58863091     0.90400
C82         C  0.17190905  0.97021445  0.61490444    -0.49800
C83         C  0.17119787  0.95923086  0.66460969     0.13400
C84         C  0.22874851  0.92205528  0.68352189     0.24300
C85         C  0.28612073  0.97039814  0.61527448    -0.50500
C86         C  0.28638009  0.95938002  0.66498086     0.13500
C87         C  0.22925268  0.87343827  0.60189976    -0.50100
C88         C  0.22902084  0.86232380  0.65150487     0.14000
H89         H  0.13421539  0.99407942  0.59569030     0.18600
H90         H  0.22856089  0.91263918  0.72395352     0.04300
H91         H  0.32397620  0.99429821  0.59629213     0.18900
H92         H  0.22949430  0.83622842  0.57445886     0.18700
C93         C  0.22962613  0.59848782  0.58839373     0.90400
C94         C  0.28668289  0.57093537  0.61489953    -0.49800
C95         C  0.28707734  0.58189454  0.66461187     0.13400
C96         C  0.22946098  0.61912786  0.68329554     0.24300
C97         C  0.17246502  0.57095984  0.61477769    -0.50500
C98         C  0.17190216  0.58191896  0.66448940     0.13500
C99         C  0.22961232  0.66783531  0.60170825    -0.50100
C100        C  0.22951169  0.67888953  0.65132701     0.14000
H101        H  0.32449775  0.54707755  0.59582874     0.18600
H102        H  0.22938747  0.62850185  0.72373316     0.04300
H103        H  0.13470084  0.54713253  0.59562383     0.18900
H104        H  0.22963167  0.70507733  0.57429373     0.18700
In105      In  0.72871500  0.98442688  0.64037751     1.36900
C106        C  0.72885372  0.86405691  0.64445794     0.81500
O107        O  0.83204597  0.96637962  0.63868282    -0.56900
O108        O  0.79709328  0.02195934  0.69760190    -0.47800
C109        C  0.72889226  0.04492661  0.55561941     0.74200
O110        O  0.72915611  0.98645072  0.55894619    -0.42700
C111        C  0.61365658  0.99452813  0.67797950     0.78900
O112        O  0.72856917  0.89280602  0.60383474    -0.54500
O113        O  0.65974590  0.02329006  0.69658363    -0.44600
O114        O  0.72903564  0.89673016  0.68323839    -0.51000
C115        C  0.84360023  0.99458108  0.67836120     0.89100
O116        O  0.72851790  0.07432126  0.59622292    -0.52900
O117        O  0.62566435  0.96491704  0.63903644    -0.56200
In118      In  0.72935175  0.55720305  0.64029512     1.36900
C119        C  0.72911199  0.67757185  0.64440983     0.81500
O120        O  0.62613917  0.57585121  0.63872104    -0.56900
O121        O  0.66070381  0.51889666  0.69697237    -0.47800
C122        C  0.72969268  0.49653943  0.55562627     0.74200
O123        O  0.72980909  0.55502704  0.55886573    -0.42700
C124        C  0.84433325  0.54720253  0.67803106     0.78900
O125        O  0.72874104  0.64884324  0.60377655    -0.54500
O126        O  0.79805873  0.51918254  0.69704688    -0.44600
O127        O  0.72958399  0.64487909  0.68317829    -0.51000
C128        C  0.61438283  0.54692554  0.67803397     0.89100
O129        O  0.72940998  0.46723495  0.59626893    -0.52900
O130        O  0.83251039  0.57603015  0.63868480    -0.56200
C131        C  0.72911840  0.09843143  0.41154496     0.90400
C132        C  0.67201383  0.07089612  0.38510453    -0.49800
C133        C  0.67152037  0.08185944  0.33539613     0.13400
C134        C  0.72909798  0.11911504  0.31664616     0.24300
C135        C  0.78623158  0.07090636  0.38508149    -0.50500
C136        C  0.78670619  0.08189436  0.33536766     0.13500
C137        C  0.72911079  0.16777614  0.39825217    -0.50100
C138        C  0.72911473  0.17886278  0.34864266     0.14000
H139        H  0.63425108  0.04700959  0.40421530     0.18600
H140        H  0.72908797  0.12851149  0.27621156     0.04300
H141        H  0.82402874  0.04706500  0.40418418     0.18900
H142        H  0.72916210  0.20500185  0.42568032     0.18700
C143        C  0.72979848  0.44273052  0.41164241     0.90400
C144        C  0.78685757  0.47028995  0.38515696    -0.49800
C145        C  0.78729241  0.45931498  0.33544977     0.13400
C146        C  0.72970968  0.42204403  0.31674709     0.24300
C147        C  0.67264452  0.47022778  0.38522528    -0.50500
C148        C  0.67211989  0.45923850  0.33551748     0.13500
C149        C  0.72982085  0.37337722  0.39835006    -0.50100
C150        C  0.72975750  0.36229693  0.34873520     0.14000
H151        H  0.82464046  0.49418365  0.40423724     0.18600
H152        H  0.72966881  0.41265201  0.27631191     0.04300
H153        H  0.63485882  0.49405622  0.40435412     0.18900
H154        H  0.72981810  0.33614977  0.42577700     0.18700
C155        C  0.44432199  0.98601276  0.75027238     0.01500
C156        C  0.01347964  0.98652069  0.75000704     0.01500
C157        C  0.01399827  0.55566496  0.74983987     0.01500
C158        C  0.55724296  0.27025288  0.08856686     0.90400
C159        C  0.52972382  0.21313713  0.11499992    -0.49800
C160        C  0.54073123  0.21261901  0.16470071     0.13400
C161        C  0.57800268  0.27018069  0.18345228     0.24300
C162        C  0.52974406  0.32734876  0.11505901    -0.50500
C163        C  0.54077487  0.32779336  0.16476119     0.13500
C164        C  0.62660252  0.27023425  0.10182537    -0.50100
C165        C  0.63772448  0.27021067  0.15143295     0.14000
H166        H  0.50581287  0.17538738  0.09589018     0.18600
H167        H  0.58742498  0.27015272  0.22388319     0.04300
H168        H  0.50588863  0.36516091  0.09598223     0.18900
H169        H  0.66380628  0.27030116  0.07437925     0.18700
C170        C  0.90155722  0.27091515  0.08846303     0.90400
C171        C  0.92912262  0.32797396  0.11495247    -0.49800
C172        C  0.91818197  0.32839437  0.16466610     0.13400
C173        C  0.88092540  0.27079518  0.18336932     0.24300
C174        C  0.92907716  0.21374934  0.11486465    -0.50500
C175        C  0.91811966  0.21320471  0.16458244     0.13500
C176        C  0.83221946  0.27092536  0.10178050    -0.50100
C177        C  0.82116194  0.27084599  0.15139508     0.14000
H178        H  0.95299775  0.36576818  0.09586913     0.18600
H179        H  0.87155067  0.27074484  0.22380672     0.04300
H180        H  0.95289849  0.17597270  0.09571834     0.18900
H181        H  0.79497894  0.27092997  0.07436599     0.18700
In182      In  0.44289531  0.27065525  0.85986529     1.36900
C183        C  0.32253532  0.27092757  0.85576105     0.81500
O184        O  0.42444865  0.37390947  0.86147452    -0.56900
O185        O  0.48100574  0.33921803  0.80303321    -0.47800
C186        C  0.50348674  0.27043810  0.94456600     0.74200
O187        O  0.44500512  0.27051794  0.94129378    -0.42700
C188        C  0.45285863  0.15563600  0.82216209     0.78900
O189        O  0.35126397  0.27104598  0.89639494    -0.54500
O190        O  0.48113003  0.20184179  0.80327179    -0.44600
O191        O  0.35522438  0.27067034  0.81699004    -0.51000
C192        C  0.45316429  0.38559793  0.82205358     0.89100
O193        O  0.53282825  0.27047005  0.90393924    -0.52900
O194        O  0.42379587  0.16753389  0.86138483    -0.56200
In195      In  0.01568535  0.27124645  0.85967737     1.36900
C196        C  0.13605672  0.27114276  0.85564780     0.81500
O197        O  0.03390124  0.16794287  0.86132256    -0.56900
O198        O  0.97801722  0.20281954  0.80255298    -0.47800
C199        C  0.95510182  0.27118322  0.94440004     0.74200
O200        O  0.01358006  0.27110066  0.94110881    -0.42700
C201        C  0.00557179  0.38627959  0.82204872     0.78900
O202        O  0.10727743  0.27117987  0.89625736    -0.54500
O203        O  0.97699664  0.34013846  0.80334649    -0.44600
O204        O  0.10341385  0.27115880  0.81685099    -0.51000
C205        C  0.00553769  0.15634961  0.82172357     0.89100
O206        O  0.92574882  0.27132072  0.90377750    -0.52900
O207        O  0.03500709  0.37432564  0.86108490    -0.56200
C208        C  0.44483838  0.55518294  0.75006604     0.01500
C209        C  0.45084766  0.44681719  0.79965327    -0.09300
C210        C  0.44558078  0.49726311  0.77964389    -0.10900
C211        C  0.25702893  0.27104921  0.85394949    -0.09300
C212        C  0.20156647  0.27110686  0.85390098    -0.10900
C213        C  0.92591463  0.27110315  0.99187428    -0.09300
C214        C  0.91218493  0.27100326  0.03500430    -0.10900
C215        C  0.54651874  0.27029166  0.03512956    -0.09300
C216        C  0.53270330  0.27033751  0.99202145    -0.10900
C217        C  0.70122502  0.27040384  0.16950448    -0.09300
C218        C  0.75767894  0.27062957  0.16950250    -0.10900
C219        C  0.01321491  0.49789749  0.77959509    -0.09300
C220        C  0.00790042  0.44750623  0.79967570    -0.10900
C221        C  0.00782451  0.09510820  0.79934361    -0.09300
C222        C  0.01295223  0.04458240  0.77942869    -0.10900
C223        C  0.44514861  0.04391683  0.77986455    -0.09300
C224        C  0.45048005  0.09438176  0.79983045    -0.10900
C225        C  0.72954566  0.29881562  0.33061964    -0.09300
C226        C  0.72931758  0.24236093  0.33056840    -0.10900
C227        C  0.55315834  0.54921569  0.70042129    -0.09300
C228        C  0.50272651  0.55446703  0.72045199    -0.10900
C229        C  0.90559114  0.54956154  0.70034564    -0.09300
C230        C  0.95607493  0.55486247  0.72027968    -0.10900
C231        C  0.72981784  0.46727373  0.50818818    -0.09300
C232        C  0.72984362  0.45342935  0.46508499    -0.10900
C233        C  0.90484182  0.99226224  0.70074162    -0.09300
C234        C  0.95538339  0.98709846  0.72062670    -0.10900
C235        C  0.55243788  0.99217905  0.70037301    -0.09300
C236        C  0.50206881  0.98682889  0.72048628    -0.10900
C237        C  0.72900526  0.07406780  0.50812938    -0.09300
C238        C  0.72909929  0.08778180  0.46499771    -0.10900
C239        C  0.72901205  0.74308180  0.64621947    -0.09300
C240        C  0.72893766  0.79854642  0.64623955    -0.10900
C241        C  0.38858229  0.55731077  0.71832207    -0.09300
C242        C  0.34112518  0.56623049  0.69471433    -0.10900
C243        C  0.07023425  0.55755765  0.71806594    -0.09300
C244        C  0.11773609  0.56633559  0.69448302    -0.10900
C245        C  0.34039267  0.97496385  0.69515363    -0.09300
C246        C  0.38790964  0.98385421  0.71869634    -0.10900
C247        C  0.06956698  0.98420490  0.71808337    -0.09300
C248        C  0.11702794  0.97506133  0.69452917    -0.10900
C249        C  0.22914926  0.79881346  0.66955242    -0.09300
C250        C  0.22932529  0.74235876  0.66946872    -0.10900
C251        C  0.22953160  0.96719952  0.49205763    -0.09300
C252        C  0.22944245  0.95347097  0.53518521    -0.10900
C253        C  0.22971771  0.57398133  0.49183905    -0.09300
C254        C  0.22970534  0.58781650  0.53494520    -0.10900
C255        C  0.22945477  0.24267749  0.35387175    -0.09300
C256        C  0.22970563  0.29814144  0.35385420    -0.10900
C257        C  0.61745021  0.06606366  0.30535839    -0.09300
C258        C  0.56997548  0.05700108  0.28180524    -0.10900
C259        C  0.52496033  0.15854124  0.19472796    -0.09300
C260        C  0.51591865  0.11105554  0.21826717    -0.10900
C261        C  0.45580178  0.05407481  0.27955714    -0.09300
C262        C  0.40533445  0.04882253  0.29953730    -0.10900
C263        C  0.50795021  0.94643334  0.20044734    -0.09300
C264        C  0.51311703  0.99689902  0.22043841    -0.10900
C265        C  0.75732542  0.77042147  0.14615603    -0.09300
C266        C  0.70186424  0.77017452  0.14620299    -0.10900
C267        C  0.44245385  0.92975270  0.78203162    -0.09300
C268        C  0.43369208  0.88225547  0.80563096    -0.10900
C269        C  0.43381278  0.65886144  0.80546719    -0.09300
C270        C  0.44273490  0.61141481  0.78184300    -0.10900
C271        C  0.41214370  0.77034554  0.96521280    -0.09300
C272        C  0.42596980  0.77030933  0.00832250    -0.10900
C273        C  0.01581193  0.93040514  0.78189749    -0.09300
C274        C  0.02496012  0.88294269  0.80544813    -0.10900
C275        C  0.02508046  0.65958363  0.80495385    -0.09300
C276        C  0.01617703  0.61205706  0.78142999    -0.10900
C277        C  0.04649577  0.77066442  0.96485426    -0.09300
C278        C  0.03276381  0.77054498  0.00797985    -0.10900
C279        C  0.25766978  0.77068954  0.83063926    -0.09300
C280        C  0.20121612  0.77087236  0.83053854    -0.10900
C281        C  0.93394834  0.38243476  0.19475249    -0.09300
C282        C  0.94295866  0.42989781  0.21833711    -0.10900
C283        C  0.84133854  0.47505232  0.30537495    -0.09300
C284        C  0.88881597  0.48403822  0.28181170    -0.10900
C285        C  0.00296365  0.48683848  0.27972965    -0.09300
C286        C  0.05339888  0.49205114  0.29976015    -0.10900
C287        C  0.95117034  0.59450528  0.20048771    -0.09300
C288        C  0.94588093  0.54406644  0.22050845    -0.10900
C289        C  0.88832521  0.05744470  0.28171985    -0.09300
C290        C  0.84083252  0.06631370  0.30530690    -0.10900
C291        C  0.93371238  0.15904326  0.19460461    -0.09300
C292        C  0.94255373  0.11155677  0.21820935    -0.10900
C293        C  0.95066548  0.94691582  0.20041940    -0.09300
C294        C  0.94535489  0.99737667  0.22041011    -0.10900
C295        C  0.05293040  0.04925055  0.29965782    -0.09300
C296        C  0.00249822  0.05456554  0.27962456    -0.10900
C297        C  0.61796846  0.47479255  0.30550026    -0.09300
C298        C  0.57047989  0.48360891  0.28191130    -0.10900
C299        C  0.52523841  0.38190618  0.19482666    -0.09300
C300        C  0.51639910  0.42940477  0.21839790    -0.10900
C301        C  0.45632605  0.48641446  0.27965830    -0.09300
C302        C  0.40583673  0.49169548  0.29958507    -0.10900
C303        C  0.51357047  0.54355532  0.22051497    -0.09300
C304        C  0.50830949  0.59401302  0.20053473    -0.10900
loop_ 
_geom_bond_atom_site_label_1 
_geom_bond_atom_site_label_2 
_geom_bond_distance 
_geom_bond_site_symmetry_2 
_ccdc_geom_bond_type 
C1          C298   1.478       .  S
C1          C300   1.478       .  S
C1          C301   1.473       .  S
C1          C303   1.473       .  S
C2          C289   1.478       .  S
C2          C292   1.478       .  S
C2          C294   1.474   1_545  S
C2          C296   1.474   1_655  S
C3          C282   1.478       .  S
C3          C284   1.478       .  S
C3          C285   1.474   1_655  S
C3          C288   1.474       .  S
C4          C277   1.462       .  S
C4            C5   1.532       .  S
C4           C10   1.525       .  S
C4            C8   1.532       .  S
C5           H12   1.086       .  S
C5            C6   1.364       .  D
C6            C7   1.551       .  S
C6          C274   1.452       .  S
C7           C11   1.542       .  S
C7            C9   1.551       .  S
C7           H13   1.111       .  S
C8           H14   1.086       .  S
C8            C9   1.364       .  D
C9          C275   1.452       .  S
C10          H15   1.087       .  S
C10          C11   1.362       .  D
C11         C280   1.442       .  S
C16         C271   1.463       .  S
C16          C17   1.532       .  S
C16          C22   1.525       .  S
C16          C20   1.532       .  S
C17          H24   1.086       .  S
C17          C18   1.364       .  D
C18          C19   1.551       .  S
C18         C269   1.452       .  S
C19          C23   1.542       .  S
C19          C21   1.550       .  S
C19          H25   1.111       .  S
C20          H26   1.086       .  S
C20          C21   1.364       .  D
C21         C268   1.452       .  S
C22          H27   1.087       .  S
C22          C23   1.362       .  D
C23         C279   1.442       .  S
In28         O30   2.241       .  S
In28         O31   2.274       .  S
In28         O39   2.261       .  S
In28         O33   2.201       .  S
In28         O35   2.193       .  S
In28         O36   2.273       .  S
In28         O37   2.203       .  S
In28         O40   2.242       .  S
C29          O35   1.258       .  A
C29          O37   1.259       .  A
C29         C266   1.401       .  S
O30          C38   1.255       .  A
O31          C38   1.265       .  A
C32          O39   1.264       .  A
C32          O33   1.253       .  A
C32         C272   1.427       .  S
C34          O36   1.265       .  A
C34          O40   1.255       .  A
C34         C304   1.442       .  S
C38         C263   1.442       .  S
In41         O43   2.242       .  S
In41         O44   2.274       .  S
In41         O52   2.261   1_655  S
In41         O46   2.201       .  S
In41         O48   2.193       .  S
In41         O49   2.274       .  S
In41         O50   2.203       .  S
In41         O53   2.242       .  S
C42          O48   1.258       .  A
C42          O50   1.259       .  A
C42         C265   1.401       .  S
O43          C51   1.255       .  A
O44          C51   1.265       .  A
C45          O52   1.264       .  A
C45          O46   1.253   1_455  A
C45         C278   1.427       .  S
C47          O49   1.265       .  A
C47          O53   1.255       .  A
C47         C293   1.443       .  S
C51         C287   1.442       .  S
C54         C258   1.478       .  S
C54         C260   1.477       .  S
C54         C261   1.474       .  S
C54         C264   1.474   1_545  S
In55         O57   2.241       .  S
In55         O58   2.274       .  S
In55         O66   2.261       .  S
In55         O60   2.201       .  S
In55         O62   2.193       .  S
In55         O63   2.273       .  S
In55         O64   2.203       .  S
In55         O67   2.242       .  S
C56          O62   1.258       .  A
C56          O64   1.259       .  A
C56         C256   1.401       .  S
O57          C65   1.255       .  A
O58          C65   1.265       .  A
C59          O66   1.264       .  A
C59          O60   1.253       .  A
C59         C253   1.427       .  S
C61          O63   1.265       .  A
C61          O67   1.255       .  A
C61         C302   1.442       .  S
C65         C286   1.442       .  S
In68         O70   2.242       .  S
In68         O71   2.274       .  S
In68         O79   2.261   1_545  S
In68         O73   2.201       .  S
In68         O75   2.193       .  S
In68         O76   2.274       .  S
In68         O77   2.203       .  S
In68         O80   2.242       .  S
C69          O75   1.258       .  A
C69          O77   1.259       .  A
C69         C255   1.401       .  S
O70          C78   1.255       .  A
O71          C78   1.265       .  A
C72          O79   1.264       .  A
C72          O73   1.253   1_565  A
C72         C251   1.427       .  S
C74          O76   1.265       .  A
C74          O80   1.255       .  A
C74         C295   1.443       .  S
C78         C262   1.442       .  S
C81         C252   1.462       .  S
C81          C82   1.532       .  S
C81          C87   1.525       .  S
C81          C85   1.532       .  S
C82          H89   1.086       .  S
C82          C83   1.364       .  D
C83          C84   1.551       .  S
C83         C248   1.452       .  S
C84          C88   1.542       .  S
C84          C86   1.551       .  S
C84          H90   1.111       .  S
C85          H91   1.086       .  S
C85          C86   1.364       .  D
C86         C245   1.452       .  S
C87          H92   1.087       .  S
C87          C88   1.362       .  D
C88         C249   1.442       .  S
C93         C254   1.462       .  S
C93          C94   1.532       .  S
C93          C99   1.525       .  S
C93          C97   1.532       .  S
C94         H101   1.086       .  S
C94          C95   1.364       .  D
C95          C96   1.551       .  S
C95         C242   1.452       .  S
C96         C100   1.542       .  S
C96          C98   1.550       .  S
C96         H102   1.111       .  S
C97         H103   1.086       .  S
C97          C98   1.364       .  D
C98         C244   1.452       .  S
C99         H104   1.087       .  S
C99         C100   1.362       .  D
C100        C250   1.442       .  S
In105       O107   2.242       .  S
In105       O108   2.274   1_565  S
In105       O116   2.262   1_565  S
In105       O110   2.201       .  S
In105       O112   2.193       .  S
In105       O113   2.274   1_565  S
In105       O114   2.203       .  S
In105       O117   2.242       .  S
C106        O112   1.258       .  A
C106        O114   1.259       .  A
C106        C240   1.401       .  S
O107        C115   1.255       .  A
O108        C115   1.265   1_545  A
C109        O116   1.264       .  A
C109        O110   1.253   1_545  A
C109        C237   1.427       .  S
C111        O113   1.265   1_565  A
C111        O117   1.255       .  A
C111        C235   1.442       .  S
C115        C233   1.443       .  S
In118       O120   2.242       .  S
In118       O121   2.274       .  S
In118       O129   2.261       .  S
In118       O123   2.201       .  S
In118       O125   2.193       .  S
In118       O126   2.273       .  S
In118       O127   2.203       .  S
In118       O130   2.241       .  S
C119        O125   1.258       .  A
C119        O127   1.259       .  A
C119        C239   1.401       .  S
O120        C128   1.255       .  A
O121        C128   1.265       .  A
C122        O129   1.264       .  A
C122        O123   1.253       .  A
C122        C231   1.426       .  S
C124        O126   1.265       .  A
C124        O130   1.255       .  A
C124        C229   1.442       .  S
C128        C227   1.442       .  S
C131        C238   1.462       .  S
C131        C132   1.532       .  S
C131        C137   1.525       .  S
C131        C135   1.532       .  S
C132        H139   1.086       .  S
C132        C133   1.364       .  D
C133        C134   1.551       .  S
C133        C257   1.452       .  S
C134        C138   1.542       .  S
C134        C136   1.551       .  S
C134        H140   1.111       .  S
C135        H141   1.086       .  S
C135        C136   1.364       .  D
C136        C290   1.452       .  S
C137        H142   1.087       .  S
C137        C138   1.362       .  D
C138        C226   1.442       .  S
C143        C232   1.462       .  S
C143        C144   1.532       .  S
C143        C149   1.525       .  S
C143        C147   1.532       .  S
C144        H151   1.086       .  S
C144        C145   1.364       .  D
C145        C146   1.551       .  S
C145        C283   1.452       .  S
C146        C150   1.542       .  S
C146        C148   1.550       .  S
C146        H152   1.111       .  S
C147        H153   1.086       .  S
C147        C148   1.364       .  D
C148        C297   1.452       .  S
C149        H154   1.087       .  S
C149        C150   1.362       .  D
C150        C225   1.442       .  S
C155        C223   1.473   1_565  S
C155        C236   1.474       .  S
C155        C246   1.478       .  S
C155        C267   1.478       .  S
C156        C222   1.474   1_565  S
C156        C234   1.474   1_455  S
C156        C247   1.478       .  S
C156        C273   1.478       .  S
C157        C219   1.473       .  S
C157        C230   1.473   1_455  S
C157        C243   1.478       .  S
C157        C276   1.478       .  S
C158        C215   1.462       .  S
C158        C159   1.532       .  S
C158        C164   1.525       .  S
C158        C162   1.532       .  S
C159        H166   1.086       .  S
C159        C160   1.364       .  D
C160        C161   1.551       .  S
C160        C259   1.452       .  S
C161        C165   1.542       .  S
C161        C163   1.550       .  S
C161        H167   1.111       .  S
C162        H168   1.086       .  S
C162        C163   1.364       .  D
C163        C299   1.452       .  S
C164        H169   1.087       .  S
C164        C165   1.362       .  D
C165        C217   1.442       .  S
C170        C214   1.463       .  S
C170        C171   1.532       .  S
C170        C176   1.525       .  S
C170        C174   1.532       .  S
C171        H178   1.086       .  S
C171        C172   1.364       .  D
C172        C173   1.551       .  S
C172        C281   1.452       .  S
C173        C177   1.542       .  S
C173        C175   1.551       .  S
C173        H179   1.111       .  S
C174        H180   1.086       .  S
C174        C175   1.364       .  D
C175        C291   1.452       .  S
C176        H181   1.087       .  S
C176        C177   1.362       .  D
C177        C218   1.442       .  S
In182       O184   2.242       .  S
In182       O185   2.274       .  S
In182       O193   2.261       .  S
In182       O187   2.201       .  S
In182       O189   2.193       .  S
In182       O190   2.274       .  S
In182       O191   2.203       .  S
In182       O194   2.242       .  S
C183        O189   1.258       .  A
C183        O191   1.259       .  A
C183        C211   1.401       .  S
O184        C192   1.255       .  A
O185        C192   1.265       .  A
C186        O193   1.264       .  A
C186        O187   1.253       .  A
C186        C216   1.426       .  S
C188        O190   1.265       .  A
C188        O194   1.255       .  A
C188        C224   1.442       .  S
C192        C209   1.442       .  S
In195       O197   2.242       .  S
In195       O198   2.274   1_455  S
In195       O206   2.262   1_455  S
In195       O200   2.201       .  S
In195       O202   2.193       .  S
In195       O203   2.273   1_455  S
In195       O204   2.203       .  S
In195       O207   2.242       .  S
C196        O202   1.258       .  A
C196        O204   1.259       .  A
C196        C212   1.401       .  S
O197        C205   1.255       .  A
O198        C205   1.265   1_655  A
C199        O206   1.264       .  A
C199        O200   1.253   1_655  A
C199        C213   1.427       .  S
C201        O203   1.265   1_455  A
C201        O207   1.255       .  A
C201        C220   1.442       .  S
C205        C221   1.443       .  S
C208        C210   1.474       .  S
C208        C228   1.474       .  S
C208        C241   1.478       .  S
C208        C270   1.478       .  S
C209        C210   1.211       .  T
C211        C212   1.185       .  T
C213        C214   1.202   1_556  T
C215        C216   1.202   1_554  T
C217        C218   1.206       .  T
C219        C220   1.211       .  T
C221        C222   1.211       .  T
C223        C224   1.211       .  T
C225        C226   1.206       .  T
C227        C228   1.211       .  T
C229        C230   1.211       .  T
C231        C232   1.202       .  T
C233        C234   1.211       .  T
C235        C236   1.211       .  T
C237        C238   1.202       .  T
C239        C240   1.185       .  T
C241        C242   1.213       .  T
C243        C244   1.213       .  T
C245        C246   1.213       .  T
C247        C248   1.213       .  T
C249        C250   1.206       .  T
C251        C252   1.202       .  T
C253        C254   1.202       .  T
C255        C256   1.185       .  T
C257        C258   1.213       .  T
C259        C260   1.213       .  T
C261        C262   1.211       .  T
C263        C264   1.211       .  T
C265        C266   1.185       .  T
C267        C268   1.213       .  T
C269        C270   1.213       .  T
C271        C272   1.202   1_556  T
C273        C274   1.213       .  T
C275        C276   1.213       .  T
C277        C278   1.202   1_556  T
C279        C280   1.206       .  T
C281        C282   1.213       .  T
C283        C284   1.213       .  T
C285        C286   1.211       .  T
C287        C288   1.211       .  T
C289        C290   1.213       .  T
C291        C292   1.213       .  T
C293        C294   1.211       .  T
C295        C296   1.211       .  T
C297        C298   1.213       .  T
C299        C300   1.213       .  T
C301        C302   1.211       .  T
C303        C304   1.211       .  T
