geometry optimzed in LAMMPS
_audit_creation_date              2020-12-01 
_audit_creation_method            'lammps2cif' 
_symmetry_space_group_name_H-M    'P1' 
_symmetry_Int_Tables_number       1 
_symmetry_cell_setting            triclinic 
loop_ 
_symmetry_equiv_pos_as_xyz 
  x,y,z 
_cell_length_a                    31.8925446 
_cell_length_b                    32.141769285416984 
_cell_length_c                    32.009430113383864 
_cell_angle_alpha                 90.85419981479647 
_cell_angle_beta                  90.31546542167185 
_cell_angle_gamma                 89.59537112271659 
loop_ 
_atom_site_label 
_atom_site_type_symbol 
_atom_site_fract_x 
_atom_site_fract_y 
_atom_site_fract_z 
_atom_site_charge 
C1          C  0.49370830  0.48729897  0.99946240    -0.02300
N2          N  0.38908139  0.79918352  0.80061212    -0.27100
N3          N  0.42942065  0.80866772  0.80122999    -0.35000
C4          C  0.45034299  0.78138960  0.82515848     0.01200
C5          C  0.42208202  0.75318373  0.84048990     0.07200
C6          C  0.38348115  0.76538449  0.82434898    -0.05900
H7          H  0.48391877  0.78135201  0.82998268     0.07900
H8          H  0.35379750  0.75007100  0.82854653     0.09100
Cu9        Cu  0.45612367  0.85717235  0.76935442     0.44200
Cu10       Cu  0.34373670  0.83061439  0.76497471     0.42000
Cu11       Cu  0.38834511  0.91226188  0.70262183     0.43900
N12         N  0.47340406  0.91184971  0.74136379    -0.34500
N13         N  0.44699731  0.93350597  0.71825399    -0.28800
C14         C  0.46386544  0.97061866  0.70996904    -0.04900
C15         C  0.50316820  0.97186860  0.72812535     0.07300
C16         C  0.50847385  0.93408792  0.74754821     0.01100
H17         H  0.44829366  0.99512793  0.69285972     0.08800
H18         H  0.53458840  0.92463717  0.76703425     0.07900
N19         N  0.32762722  0.89225788  0.69668309    -0.36000
N20         N  0.30945881  0.86507274  0.72116531    -0.28200
C21         C  0.26798033  0.86482160  0.71233324    -0.03400
C22         C  0.26022023  0.89302043  0.68056275     0.05200
C23         C  0.29898568  0.90907762  0.67119151     0.03300
H24         H  0.24514351  0.84651819  0.72862594     0.08400
H25         H  0.30570742  0.93281420  0.64867579     0.07300
N26         N  0.61683885  0.21038464  0.75491938    -0.27100
N27         N  0.57857010  0.19550678  0.75903916    -0.35000
C28         C  0.55527586  0.22310064  0.78092205     0.01200
C29         C  0.58020037  0.25673756  0.79169412     0.07200
C30         C  0.61897584  0.24770640  0.77442167    -0.05900
H31         H  0.52344095  0.21769519  0.79091518     0.07900
H32         H  0.64740312  0.26554104  0.77831219     0.09100
Cu33       Cu  0.56208230  0.13506800  0.74273233     0.44200
Cu34       Cu  0.66593480  0.17636068  0.72885676     0.42000
Cu35       Cu  0.64955292  0.06504369  0.72578176     0.43900
N36         N  0.55617510  0.07122547  0.73474192    -0.34500
N37         N  0.58857190  0.04550032  0.73153234    -0.28800
C38         C  0.57470491  0.00618027  0.72908389    -0.04900
C39         C  0.53152164  0.00736480  0.73008340     0.07300
C40         C  0.52067183  0.04894759  0.73360535     0.01100
H41         H  0.59457558  0.97888889  0.72556604     0.08800
H42         H  0.48935953  0.06200580  0.73596510     0.07900
N43         N  0.70443754  0.09288541  0.70793814    -0.36000
N44         N  0.71024071  0.13357507  0.70766185    -0.28200
C45         C  0.74784129  0.14134683  0.69070615    -0.03400
C46         C  0.76631479  0.10366465  0.68004502     0.05200
C47         C  0.73802730  0.07365043  0.69129814     0.03300
H48         H  0.76029508  0.17204913  0.68559162     0.08400
H49         H  0.74090782  0.04041743  0.68623706     0.07300
N50         N  0.18965717  0.37670199  0.21306342    -0.27100
N51         N  0.17492208  0.41395076  0.20353236    -0.35000
C52         C  0.20378780  0.43441117  0.18150641     0.01200
C53         C  0.23858957  0.40897491  0.17664499     0.07200
C54         C  0.22861050  0.37255922  0.19712210    -0.05900
H55         H  0.19946421  0.46534595  0.16924764     0.07900
H56         H  0.24792432  0.34489056  0.19953714     0.09100
Cu57       Cu  0.11545713  0.43497644  0.21880366     0.44200
Cu58       Cu  0.15442671  0.33380828  0.24679339     0.42000
Cu59       Cu  0.04381307  0.36200791  0.26315306     0.43900
N60         N  0.05388470  0.44934493  0.23309626    -0.34500
N61         N  0.02672055  0.42212161  0.24725735    -0.28800
C62         C  0.98947341  0.44130528  0.25295184    -0.04900
C63         C  0.99390933  0.48253490  0.24232690     0.07300
C64         C  0.03499808  0.48665447  0.23005228     0.01100
H65         H  0.96183195  0.42676063  0.26549081     0.08800
H66         H  0.05014882  0.51473987  0.21980886     0.07900
N67         N  0.07215078  0.30899612  0.28692108    -0.36000
N68         N  0.11215359  0.29891697  0.28184888    -0.28200
C69         C  0.12044359  0.26430857  0.30382510    -0.03400
C70         C  0.08402837  0.25217130  0.32364961     0.05200
C71         C  0.05411006  0.28119609  0.31206504     0.03300
H72         H  0.15090316  0.24938748  0.30577504     0.08400
H73         H  0.02165460  0.28237760  0.32172352     0.07300
N74         N  0.86521089  0.71310938  0.28532500    -0.27100
N75         N  0.89980832  0.69458297  0.29881495    -0.35000
C76         C  0.92253145  0.72183184  0.32137850     0.01200
C77         C  0.90179107  0.75963402  0.32191307     0.07200
C78         C  0.86548384  0.75307671  0.29871410    -0.05900
H79         H  0.95221176  0.71459499  0.33631963     0.07900
H80         H  0.84107658  0.77562061  0.29214348     0.09100
Cu81       Cu  0.91774428  0.63424043  0.28471115     0.44200
Cu82       Cu  0.81932495  0.68291631  0.24941358     0.42000
Cu83       Cu  0.86043546  0.58817154  0.20180968     0.43900
N84         N  0.93278398  0.57634226  0.26027584    -0.34500
N85         N  0.91101858  0.55886393  0.22960328    -0.28800
C86         C  0.92813098  0.52160842  0.21996516    -0.04900
C87         C  0.96263466  0.51586453  0.24551235     0.07300
C88         C  0.96501189  0.55122813  0.27041162     0.01100
H89         H  0.91737375  0.50116590  0.19504517     0.08800
H90         H  0.98883826  0.55854685  0.29353596     0.07900
N91         N  0.80228234  0.61326605  0.18821576    -0.36000
N92         N  0.78468291  0.64450561  0.20904202    -0.28200
C93         C  0.74334245  0.64538404  0.19966062    -0.03400
C94         C  0.73486694  0.61352227  0.17090864     0.05200
C95         C  0.77343596  0.59475753  0.16388817     0.03300
H96         H  0.72099996  0.66643481  0.21414103     0.08400
H97         H  0.77976126  0.56779230  0.14430827     0.07300
C98         C  0.01284071  0.00008552  0.50557291    -0.02300
C99         C  0.99874330  0.96265126  0.47460077     0.01500
C100        C  0.99085421  0.92091147  0.48969578     0.04300
C101        C  0.97698746  0.88869252  0.46242100    -0.11700
C102        C  0.96366818  0.89776625  0.42188828     0.23600
C103        C  0.97056566  0.93745597  0.40632590    -0.12300
C104        C  0.99417002  0.96658120  0.42966122     0.05000
C105        C  0.94629466  0.86434160  0.39422703     0.27400
C106        C  0.97200153  0.84565948  0.36345979    -0.13000
C107        C  0.95633041  0.81333508  0.33786625     0.05500
C108        C  0.91561828  0.79775992  0.34443754    -0.09000
C109        C  0.88985655  0.81645259  0.37521890     0.06400
C110        C  0.90491144  0.85010185  0.39949711    -0.13300
Br111      Br  0.94964516  0.95096039  0.35125155    -0.05400
Br112      Br  0.99210324  0.90467623  0.54738613     0.00200
Br113      Br  0.99044249  0.79152534  0.29283418     0.00700
Br114      Br  0.86903800  0.87562195  0.44087843    -0.03700
Br115      Br  0.02867620  0.99998275  0.39351395     0.00800
Br116      Br  0.97450933  0.83140696  0.48052191    -0.03000
Br117      Br  0.02955372  0.86302558  0.35780973    -0.03900
Br118      Br  0.83506120  0.79419830  0.38668260     0.00100
C119        C  0.07805526  0.21609274  0.35149519     0.01500
C120        C  0.06468847  0.22231332  0.39318217     0.04300
C121        C  0.05762766  0.18792127  0.41902080    -0.11700
C122        C  0.06296743  0.14705526  0.40320495     0.23600
C123        C  0.07695209  0.14082888  0.36184726    -0.12300
C124        C  0.08457368  0.17516834  0.33612612     0.05000
C125        C  0.05154116  0.11073245  0.42938437     0.27400
C126        C  0.08208166  0.08953099  0.45231104    -0.13000
C127        C  0.07128576  0.05615733  0.47877295     0.05500
C128        C  0.02858794  0.03983880  0.47954298    -0.09000
C129        C  0.99804399  0.06413378  0.45601669     0.06400
C130        C  0.00973041  0.09876225  0.43204984    -0.13300
Br131      Br  0.08482544  0.08507189  0.34016354    -0.05400
Br132      Br  0.05662993  0.27791549  0.41543645     0.00200
Br133      Br  0.11697642  0.04276055  0.51670619     0.00700
Br134      Br  0.96847894  0.12982927  0.39998111    -0.03700
Br135      Br  0.10130227  0.16580959  0.27887974     0.00800
Br136      Br  0.04029038  0.19646837  0.47622895    -0.03000
Br137      Br  0.13949484  0.10884135  0.44781919    -0.03900
Br138      Br  0.93937006  0.05031896  0.45017857     0.00100
C139        C  0.80570445  0.09630638  0.65738346     0.01500
C140        C  0.83930602  0.07592480  0.67740670     0.04300
C141        C  0.87499800  0.06414206  0.65448984    -0.11700
C142        C  0.87695114  0.07255326  0.61147538     0.23600
C143        C  0.84433507  0.09488153  0.59197327    -0.12300
C144        C  0.80852765  0.10645298  0.61481021     0.05000
C145        C  0.91082323  0.05419401  0.58555040     0.27400
C146        C  0.94872581  0.07479633  0.58101798    -0.13000
C147        C  0.98140849  0.05633465  0.55758621     0.05500
C148        C  0.97497576  0.01866515  0.53273061    -0.09000
C149        C  0.93294293  0.00143485  0.53462561     0.06400
C150        C  0.90361456  0.01691113  0.56391579    -0.13300
Br151      Br  0.84820357  0.10778924  0.53339677    -0.05400
Br152      Br  0.83603759  0.06346655  0.73610447     0.00200
Br153      Br  0.03521122  0.08179581  0.56742579     0.00700
Br154      Br  0.85174479  0.98757579  0.57465384    -0.03700
Br155      Br  0.76199504  0.13290520  0.58676471     0.00800
Br156      Br  0.92040885  0.03521321  0.68169044    -0.03000
Br157      Br  0.95590251  0.12796585  0.60946889    -0.03900
Br158      Br  0.90699942  0.96323898  0.49524652     0.00100
C159        C  0.21980436  0.90670933  0.66177555     0.01500
C160        C  0.21161619  0.94977775  0.65727022     0.04300
C161        C  0.17803480  0.96334362  0.63225029    -0.11700
C162        C  0.15042086  0.93418028  0.61409969     0.23600
C163        C  0.15590349  0.89144254  0.62206205    -0.12300
C164        C  0.19116124  0.87756214  0.64480373     0.05000
C165        C  0.11499821  0.94863715  0.58746499     0.27400
C166        C  0.07970583  0.96663619  0.60603457    -0.13000
C167        C  0.04524184  0.97956565  0.58147401     0.05500
C168        C  0.04784147  0.98034441  0.53585975    -0.09000
C169        C  0.08327256  0.95774902  0.51843211     0.06400
C170        C  0.11626766  0.94295946  0.54408828    -0.13300
Br171      Br  0.11500242  0.85204810  0.60139018    -0.05400
Br172      Br  0.24466076  0.99081906  0.68720287     0.00200
Br173      Br  0.99459129  0.98328319  0.61512656     0.00700
Br174      Br  0.16604453  0.91761253  0.51982897    -0.03700
Br175      Br  0.20101674  0.81859169  0.65000307     0.00800
Br176      Br  0.17001965  0.02208053  0.62254186    -0.03000
Br177      Br  0.07842016  0.97100275  0.66679735    -0.03900
Br178      Br  0.09227396  0.94963417  0.45922901     0.00100
C179        C  0.27690522  0.41848170  0.15240310     0.01500
C180        C  0.31643639  0.42081450  0.17233792     0.04300
C181        C  0.35233978  0.43168788  0.14941117    -0.11700
C182        C  0.34886759  0.44114795  0.10659010     0.23600
C183        C  0.30946094  0.43825573  0.08659200    -0.12300
C184        C  0.27371332  0.42679565  0.10929431     0.05000
C185        C  0.38691522  0.45213368  0.08204351     0.27400
C186        C  0.40310320  0.49258199  0.08358706    -0.13000
C187        C  0.43841178  0.50333485  0.05935171     0.05500
C188        C  0.45761790  0.47336101  0.03083178    -0.09000
C189        C  0.44414718  0.43065648  0.03577407     0.06400
C190        C  0.40776856  0.42130518  0.05873201    -0.13300
Br191      Br  0.30463198  0.44917454  0.02768578    -0.05400
Br192      Br  0.32122674  0.41086221  0.23146038     0.00200
Br193      Br  0.45724905  0.56070862  0.06587243     0.00700
Br194      Br  0.38678834  0.36482691  0.06054253    -0.03700
Br195      Br  0.22065324  0.42059560  0.08060939     0.00800
Br196      Br  0.40658467  0.43293090  0.17636240    -0.03000
Br197      Br  0.37419248  0.53418404  0.11715289    -0.03900
Br198      Br  0.47845990  0.38172624  0.02398399     0.00100
C199        C  0.69389973  0.59874546  0.15355754     0.01500
C200        C  0.66375441  0.62675091  0.13702021     0.04300
C201        C  0.62831924  0.61139845  0.11516211    -0.11700
C202        C  0.62387946  0.56834044  0.10775827     0.23600
C203        C  0.65301136  0.54042072  0.12550830    -0.12300
C204        C  0.68638629  0.55541458  0.15012093     0.05000
C205        C  0.58969270  0.55171796  0.08031021     0.27400
C206        C  0.55794699  0.52813165  0.09782747    -0.13000
C207        C  0.53353219  0.50138364  0.07258075     0.05500
C208        C  0.53181753  0.50576426  0.02750612    -0.09000
C209        C  0.56711276  0.52799091  0.01062643     0.06400
C210        C  0.59443909  0.55144534  0.03684172    -0.13300
Br211      Br  0.64860648  0.48126461  0.11446339    -0.05400
Br212      Br  0.67129622  0.68610492  0.14168858     0.00200
Br213      Br  0.51449981  0.45291315  0.10244725     0.00700
Br214      Br  0.64154334  0.58128422  0.01381904    -0.03700
Br215      Br  0.71950230  0.51576461  0.18139191     0.00800
Br216      Br  0.58625205  0.64911679  0.09395476    -0.03000
Br217      Br  0.54979261  0.53085674  0.15774226    -0.03900
Br218      Br  0.59109901  0.51625696  0.95654847     0.00100
C219        C  0.50878714  0.44924125  0.97053714     0.01500
C220        C  0.54972183  0.42956392  0.97317670     0.04300
C221        C  0.56418066  0.40247492  0.94106713    -0.11700
C222        C  0.53697234  0.38848809  0.90958661     0.23600
C223        C  0.49522569  0.40190337  0.90954793    -0.12300
C224        C  0.48097006  0.43148242  0.93940602     0.05000
C225        C  0.55044564  0.35502514  0.87984735     0.27400
C226        C  0.56604000  0.36475958  0.84009381    -0.13000
C227        C  0.57493680  0.33269780  0.81086595     0.05500
C228        C  0.57023909  0.29064695  0.82204066    -0.09000
C229        C  0.55660315  0.28101954  0.86269368     0.06400
C230        C  0.54575771  0.31310626  0.89102436    -0.13300
Br231      Br  0.45772428  0.37951263  0.86705958    -0.05400
Br232      Br  0.58463861  0.42862703  0.02288882     0.00200
Br233      Br  0.59118701  0.34662490  0.75482651     0.00700
Br234      Br  0.52395136  0.29973975  0.94531771    -0.03700
Br235      Br  0.42234173  0.44449759  0.93582635     0.00800
Br236      Br  0.62163104  0.38248159  0.94043796    -0.03000
Br237      Br  0.57532696  0.42200705  0.82592946    -0.03900
Br238      Br  0.55492364  0.22407356  0.88103687     0.00100
C239        C  0.43231310  0.71538200  0.86468840     0.01500
C240        C  0.45244128  0.71874460  0.90407178     0.04300
C241        C  0.46336517  0.68261183  0.92629671    -0.11700
C242        C  0.45392960  0.64304504  0.90946944     0.23600
C243        C  0.43359331  0.63969987  0.87029013    -0.12300
C244        C  0.42330387  0.67563431  0.84775961     0.05000
C245        C  0.46342589  0.60450384  0.93315108     0.27400
C246        C  0.49837721  0.58028270  0.92246537    -0.13000
C247        C  0.50091377  0.53857960  0.93502218     0.05500
C248        C  0.47609239  0.52360058  0.96880639    -0.09000
C249        C  0.43655312  0.54600596  0.97288153     0.06400
C250        C  0.43221323  0.58708396  0.95781834    -0.13300
Br251      Br  0.41912582  0.58554595  0.84773892    -0.05400
Br252      Br  0.46337422  0.77281142  0.92859354     0.00200
Br253      Br  0.51710372  0.50253795  0.88875820     0.00700
Br254      Br  0.38215885  0.61993206  0.96895510    -0.03700
Br255      Br  0.39879915  0.66988268  0.79267288     0.00800
Br256      Br  0.49046686  0.68692782  0.98016651    -0.03000
Br257      Br  0.53971874  0.60223005  0.88484497    -0.03900
Br258      Br  0.38297080  0.52172575  0.98687093    -0.00900
loop_ 
_geom_bond_atom_site_label_1 
_geom_bond_atom_site_label_2 
_geom_bond_distance 
_geom_bond_site_symmetry_2 
_ccdc_geom_bond_type 
C1          C188   1.602   1_556  S
C1          C208   1.618   1_556  S
C1          C219   1.596       .  S
C1          C248   1.631       .  S
N2            N3   1.324       .  A
N2            C6   1.348       .  A
N2          Cu10   2.100       .  S
N3            C4   1.344       .  A
N3           Cu9   2.067       .  S
C4            C5   1.380       .  A
C4            H7   1.081       .  S
C5            C6   1.389       .  A
C5          C239   1.484       .  S
C6            H8   1.080       .  S
Cu9          N12   2.064       .  S
Cu10         N20   2.098       .  S
Cu11         N13   2.053       .  S
Cu11         N19   2.052       .  S
N12          N13   1.320       .  A
N12          C16   1.344       .  A
N13          C14   1.343       .  A
C14          C15   1.379       .  A
C14          H17   1.082       .  S
C15          C16   1.381       .  A
C15          C39   1.461   1_565  S
C16          H18   1.082       .  S
N19          N20   1.321       .  A
N19          C23   1.338       .  A
N20          C21   1.351       .  A
C21          C22   1.392       .  A
C21          H24   1.081       .  S
C22          C23   1.379       .  A
C22         C159   1.486       .  S
C23          H25   1.081       .  S
N26          N27   1.322       .  A
N26          C30   1.346       .  A
N26         Cu34   2.075       .  S
N27          C28   1.344       .  A
N27         Cu33   2.075       .  S
C28          C29   1.385       .  A
C28          H31   1.082       .  S
C29          C30   1.385       .  A
C29         C228   1.483       .  S
C30          H32   1.082       .  S
Cu33         N36   2.074       .  S
Cu34         N44   2.074       .  S
Cu35         N37   2.058       .  S
Cu35         N43   2.059       .  S
N36          N37   1.322       .  A
N36          C40   1.344       .  A
N37          C38   1.343       .  A
C38          C39   1.378       .  A
C38          H41   1.083   1_545  S
C39          C40   1.381       .  A
C40          H42   1.083       .  S
N43          N44   1.322       .  A
N43          C47   1.342       .  A
N44          C45   1.346       .  A
C45          C46   1.382       .  A
C45          H48   1.081       .  S
C46          C47   1.379       .  A
C46         C139   1.470       .  S
C47          H49   1.081       .  S
N50          N51   1.322       .  A
N50          C54   1.351       .  A
N50         Cu58   2.100       .  S
N51          C52   1.344       .  A
N51         Cu57   2.068       .  S
C52          C53   1.382       .  A
C52          H55   1.082       .  S
C53          C54   1.390       .  A
C53         C179   1.487       .  S
C54          H56   1.082       .  S
Cu57         N60   2.066       .  S
Cu58         N68   2.100       .  S
Cu59         N61   2.074       .  S
Cu59         N67   2.076       .  S
N60          N61   1.322       .  A
N60          C64   1.343       .  A
N61          C62   1.347   1_455  A
C62          C63   1.381       .  A
C62          H65   1.083       .  S
C63          C64   1.378   1_655  A
C63          C87   1.461       .  S
C64          H66   1.083       .  S
N67          N68   1.324       .  A
N67          C71   1.346       .  A
N68          C69   1.349       .  A
C69          C70   1.388       .  A
C69          H72   1.082       .  S
C70          C71   1.383       .  A
C70         C119   1.487       .  S
C71          H73   1.082       .  S
N74          N75   1.324       .  A
N74          C78   1.348       .  A
N74         Cu82   2.091       .  S
N75          C76   1.341       .  A
N75         Cu81   2.062       .  S
C76          C77   1.379       .  A
C76          H79   1.084       .  S
C77          C78   1.388       .  A
C77         C108   1.481       .  S
C78          H80   1.082       .  S
Cu81         N84   2.062       .  S
Cu82         N92   2.091       .  S
Cu83         N85   2.066       .  S
Cu83         N91   2.064       .  S
N84          N85   1.320       .  A
N84          C88   1.344       .  A
N85          C86   1.345       .  A
C86          C87   1.380       .  A
C86          H89   1.082       .  S
C87          C88   1.381       .  A
C88          H90   1.082       .  S
N91          N92   1.321       .  A
N91          C95   1.339       .  A
N92          C93   1.351       .  A
C93          C94   1.394       .  A
C93          H96   1.081       .  S
C94          C95   1.384       .  A
C94         C199   1.495       .  S
C95          H97   1.080       .  S
C98          C99   1.612   1_445  S
C98         C128   1.620       .  S
C98         C148   1.599   1_455  S
C98         C168   1.608   1_545  S
C99         C100   1.457       .  A
C99         C104   1.452       .  A
C100        C101   1.416       .  A
C100       Br112   1.927       .  S
C101        C102   1.397       .  A
C101       Br116   1.941       .  S
C102        C103   1.396       .  A
C102        C105   1.490       .  S
C103        C104   1.409       .  A
C103       Br111   1.936       .  S
C104       Br115   1.942   1_655  S
C105        C106   1.410       .  A
C105        C110   1.412       .  A
C106        C107   1.406       .  A
C106       Br117   1.932   1_655  S
C107        C108   1.413       .  A
C107       Br113   1.931       .  S
C108        C109   1.411       .  A
C109        C110   1.408       .  A
C109       Br118   1.932       .  S
C110       Br114   1.925       .  S
C119        C120   1.414       .  A
C119        C124   1.412       .  A
C120        C121   1.411       .  A
C120       Br132   1.930       .  S
C121        C122   1.410       .  A
C121       Br136   1.931       .  S
C122        C123   1.410       .  A
C122        C125   1.496       .  S
C123        C124   1.410       .  A
C123       Br131   1.927       .  S
C124       Br135   1.930       .  S
C125        C126   1.396       .  A
C125        C130   1.394       .  A
C126        C127   1.422       .  A
C126       Br137   1.944       .  S
C127        C128   1.463       .  A
C127       Br133   1.942       .  S
C128        C129   1.458   1_455  A
C129        C130   1.414   1_655  A
C129       Br138   1.934       .  S
C130       Br134   1.944   1_455  S
C139        C140   1.408       .  A
C139        C144   1.409       .  A
C140        C141   1.404       .  A
C140       Br152   1.930       .  S
C141        C142   1.409       .  A
C141       Br156   1.926       .  S
C142        C143   1.408       .  A
C142        C145   1.480       .  S
C143        C144   1.404       .  A
C143       Br151   1.931       .  S
C144       Br155   1.929       .  S
C145        C146   1.392       .  A
C145        C150   1.395       .  A
C146        C147   1.410       .  A
C146       Br157   1.939       .  S
C147        C148   1.454       .  A
C147       Br153   1.929   1_655  S
C148        C149   1.456       .  A
C149        C150   1.411       .  A
C149       Br158   1.933   1_545  S
C150       Br154   1.945   1_545  S
C159        C160   1.416       .  A
C159        C164   1.414       .  A
C160        C161   1.405       .  A
C160       Br172   1.934       .  S
C161        C162   1.408       .  A
C161       Br176   1.933   1_565  S
C162        C163   1.410       .  A
C162        C165   1.488       .  S
C163        C164   1.410       .  A
C163       Br171   1.932       .  S
C164       Br175   1.929       .  S
C165        C166   1.394       .  A
C165        C170   1.398       .  A
C166        C167   1.412       .  A
C166       Br177   1.949       .  S
C167        C168   1.463       .  A
C167       Br173   1.949   1_455  S
C168        C169   1.449       .  A
C169        C170   1.415       .  A
C169       Br178   1.932       .  S
C170       Br174   1.940       .  S
C179        C180   1.412       .  A
C179        C184   1.412       .  A
C180        C181   1.412       .  A
C180       Br192   1.929       .  S
C181        C182   1.412       .  A
C181       Br196   1.929       .  S
C182        C183   1.410       .  A
C182        C185   1.496       .  S
C183        C184   1.409       .  A
C183       Br191   1.928       .  S
C184       Br195   1.931       .  S
C185        C186   1.402       .  A
C185        C190   1.398       .  A
C186        C187   1.419       .  A
C186       Br197   1.935       .  S
C187        C188   1.452       .  A
C187       Br193   1.951       .  S
C188        C189   1.452       .  A
C189        C190   1.413       .  A
C189       Br198   1.943       .  S
C190       Br194   1.941       .  S
C199        C200   1.418       .  A
C199        C204   1.417       .  A
C200        C201   1.414       .  A
C200       Br212   1.928       .  S
C201        C202   1.409       .  A
C201       Br216   1.929       .  S
C202        C203   1.410       .  A
C202        C205   1.493       .  S
C203        C204   1.404       .  A
C203       Br211   1.935       .  S
C204       Br215   1.936       .  S
C205        C206   1.394       .  A
C205        C210   1.400       .  A
C206        C207   1.407       .  A
C206       Br217   1.937       .  S
C207        C208   1.452       .  A
C207       Br213   1.943       .  S
C208        C209   1.449       .  A
C209        C210   1.419       .  A
C209       Br218   1.927   1_554  S
C210       Br214   1.943       .  S
C219        C220   1.449       .  A
C219        C224   1.444       .  A
C220        C221   1.414       .  A
C220       Br232   1.938   1_556  S
C221        C222   1.397       .  A
C221       Br236   1.937       .  S
C222        C223   1.397       .  A
C222        C225   1.488       .  S
C223        C224   1.413       .  A
C223       Br231   1.940       .  S
C224       Br235   1.916       .  S
C225        C226   1.409       .  A
C225        C230   1.408       .  A
C226        C227   1.410       .  A
C226       Br237   1.927       .  S
C227        C228   1.412       .  A
C227       Br233   1.930       .  S
C228        C229   1.414       .  A
C229        C230   1.406       .  A
C229       Br238   1.932       .  S
C230       Br234   1.931       .  S
C239        C240   1.415       .  A
C239        C244   1.411       .  A
C240        C241   1.412       .  A
C240       Br252   1.929       .  S
C241        C242   1.408       .  A
C241       Br256   1.928       .  S
C242        C243   1.412       .  A
C242        C245   1.490       .  S
C243        C244   1.407       .  A
C243       Br251   1.932       .  S
C244       Br255   1.932       .  S
C245        C246   1.396       .  A
C245        C250   1.399       .  A
C246        C247   1.407       .  A
C246       Br257   1.934       .  S
C247        C248   1.435       .  A
C247       Br253   1.937       .  S
C248        C249   1.453       .  A
C249        C250   1.418       .  A
C249       Br258   1.941       .  S
C250       Br254   1.939       .  S
